*SPEF "ieee 1481-1999"
*DESIGN "user_project_wrapper"
*DATE "11:11:11 Fri 11 11, 1111"
*VENDOR "OpenRCX"
*PROGRAM "Parallel Extraction"
*VERSION "1.0"
*DESIGN_FLOW "NAME_SCOPE LOCAL" "PIN_CAP NONE"
*DIVIDER /
*DELIMITER :
*BUS_DELIMITER []
*T_UNIT 1 NS
*C_UNIT 1 PF
*R_UNIT 1 OHM
*L_UNIT 1 HENRY

*NAME_MAP
*1 io_in[0]
*2 io_in[10]
*3 io_in[11]
*4 io_in[12]
*5 io_in[13]
*6 io_in[14]
*7 io_in[15]
*8 io_in[16]
*9 io_in[17]
*10 io_in[18]
*11 io_in[19]
*12 io_in[1]
*13 io_in[20]
*14 io_in[21]
*15 io_in[22]
*16 io_in[23]
*17 io_in[24]
*18 io_in[25]
*19 io_in[26]
*20 io_in[27]
*21 io_in[28]
*22 io_in[29]
*23 io_in[2]
*24 io_in[30]
*25 io_in[31]
*26 io_in[32]
*27 io_in[33]
*28 io_in[34]
*29 io_in[35]
*30 io_in[36]
*31 io_in[37]
*32 io_in[3]
*33 io_in[4]
*34 io_in[5]
*35 io_in[6]
*36 io_in[7]
*37 io_in[8]
*38 io_in[9]
*39 io_oeb[0]
*40 io_oeb[10]
*41 io_oeb[11]
*42 io_oeb[12]
*43 io_oeb[13]
*44 io_oeb[14]
*45 io_oeb[15]
*46 io_oeb[16]
*47 io_oeb[17]
*48 io_oeb[18]
*49 io_oeb[19]
*50 io_oeb[1]
*51 io_oeb[20]
*52 io_oeb[21]
*53 io_oeb[22]
*54 io_oeb[23]
*55 io_oeb[24]
*56 io_oeb[25]
*57 io_oeb[26]
*58 io_oeb[27]
*59 io_oeb[28]
*60 io_oeb[29]
*61 io_oeb[2]
*62 io_oeb[30]
*63 io_oeb[31]
*64 io_oeb[32]
*65 io_oeb[33]
*66 io_oeb[34]
*67 io_oeb[35]
*68 io_oeb[36]
*69 io_oeb[37]
*70 io_oeb[3]
*71 io_oeb[4]
*72 io_oeb[5]
*73 io_oeb[6]
*74 io_oeb[7]
*75 io_oeb[8]
*76 io_oeb[9]
*77 io_out[0]
*78 io_out[10]
*79 io_out[11]
*80 io_out[12]
*81 io_out[13]
*82 io_out[14]
*83 io_out[15]
*84 io_out[16]
*85 io_out[17]
*86 io_out[18]
*87 io_out[19]
*88 io_out[1]
*89 io_out[20]
*90 io_out[21]
*91 io_out[22]
*92 io_out[23]
*93 io_out[24]
*94 io_out[25]
*95 io_out[26]
*96 io_out[27]
*97 io_out[28]
*98 io_out[29]
*99 io_out[2]
*100 io_out[30]
*101 io_out[31]
*102 io_out[32]
*103 io_out[33]
*104 io_out[34]
*105 io_out[35]
*106 io_out[36]
*107 io_out[37]
*108 io_out[3]
*109 io_out[4]
*110 io_out[5]
*111 io_out[6]
*112 io_out[7]
*113 io_out[8]
*114 io_out[9]
*115 la_data_in[0]
*116 la_data_in[10]
*117 la_data_in[11]
*118 la_data_in[12]
*119 la_data_in[13]
*120 la_data_in[14]
*121 la_data_in[15]
*122 la_data_in[16]
*123 la_data_in[17]
*124 la_data_in[18]
*125 la_data_in[19]
*126 la_data_in[1]
*127 la_data_in[20]
*128 la_data_in[21]
*129 la_data_in[22]
*130 la_data_in[23]
*131 la_data_in[24]
*132 la_data_in[25]
*133 la_data_in[26]
*134 la_data_in[27]
*135 la_data_in[28]
*136 la_data_in[29]
*137 la_data_in[2]
*138 la_data_in[30]
*139 la_data_in[31]
*140 la_data_in[32]
*141 la_data_in[33]
*142 la_data_in[34]
*143 la_data_in[35]
*144 la_data_in[36]
*145 la_data_in[37]
*146 la_data_in[38]
*147 la_data_in[39]
*148 la_data_in[3]
*149 la_data_in[40]
*150 la_data_in[41]
*151 la_data_in[42]
*152 la_data_in[43]
*153 la_data_in[44]
*154 la_data_in[45]
*155 la_data_in[46]
*156 la_data_in[47]
*157 la_data_in[48]
*158 la_data_in[49]
*159 la_data_in[4]
*160 la_data_in[50]
*161 la_data_in[51]
*162 la_data_in[52]
*163 la_data_in[53]
*164 la_data_in[54]
*165 la_data_in[55]
*166 la_data_in[56]
*167 la_data_in[57]
*168 la_data_in[58]
*169 la_data_in[59]
*170 la_data_in[5]
*171 la_data_in[60]
*172 la_data_in[61]
*173 la_data_in[62]
*174 la_data_in[63]
*175 la_data_in[6]
*176 la_data_in[7]
*177 la_data_in[8]
*178 la_data_in[9]
*179 la_data_out[0]
*180 la_data_out[10]
*181 la_data_out[11]
*182 la_data_out[12]
*183 la_data_out[13]
*184 la_data_out[14]
*185 la_data_out[15]
*186 la_data_out[16]
*187 la_data_out[17]
*188 la_data_out[18]
*189 la_data_out[19]
*190 la_data_out[1]
*191 la_data_out[20]
*192 la_data_out[21]
*193 la_data_out[22]
*194 la_data_out[23]
*195 la_data_out[24]
*196 la_data_out[25]
*197 la_data_out[26]
*198 la_data_out[27]
*199 la_data_out[28]
*200 la_data_out[29]
*201 la_data_out[2]
*202 la_data_out[30]
*203 la_data_out[31]
*204 la_data_out[32]
*205 la_data_out[33]
*206 la_data_out[34]
*207 la_data_out[35]
*208 la_data_out[36]
*209 la_data_out[37]
*210 la_data_out[38]
*211 la_data_out[39]
*212 la_data_out[3]
*213 la_data_out[40]
*214 la_data_out[41]
*215 la_data_out[42]
*216 la_data_out[43]
*217 la_data_out[44]
*218 la_data_out[45]
*219 la_data_out[46]
*220 la_data_out[47]
*221 la_data_out[48]
*222 la_data_out[49]
*223 la_data_out[4]
*224 la_data_out[50]
*225 la_data_out[51]
*226 la_data_out[52]
*227 la_data_out[53]
*228 la_data_out[54]
*229 la_data_out[55]
*230 la_data_out[56]
*231 la_data_out[57]
*232 la_data_out[58]
*233 la_data_out[59]
*234 la_data_out[5]
*235 la_data_out[60]
*236 la_data_out[61]
*237 la_data_out[62]
*238 la_data_out[63]
*239 la_data_out[6]
*240 la_data_out[7]
*241 la_data_out[8]
*242 la_data_out[9]
*243 la_oenb[0]
*244 la_oenb[10]
*245 la_oenb[11]
*246 la_oenb[12]
*247 la_oenb[13]
*248 la_oenb[14]
*249 la_oenb[15]
*250 la_oenb[16]
*251 la_oenb[17]
*252 la_oenb[18]
*253 la_oenb[19]
*254 la_oenb[1]
*255 la_oenb[20]
*256 la_oenb[21]
*257 la_oenb[22]
*258 la_oenb[23]
*259 la_oenb[24]
*260 la_oenb[25]
*261 la_oenb[26]
*262 la_oenb[27]
*263 la_oenb[28]
*264 la_oenb[29]
*265 la_oenb[2]
*266 la_oenb[30]
*267 la_oenb[31]
*268 la_oenb[32]
*269 la_oenb[33]
*270 la_oenb[34]
*271 la_oenb[35]
*272 la_oenb[36]
*273 la_oenb[37]
*274 la_oenb[38]
*275 la_oenb[39]
*276 la_oenb[3]
*277 la_oenb[40]
*278 la_oenb[41]
*279 la_oenb[42]
*280 la_oenb[43]
*281 la_oenb[44]
*282 la_oenb[45]
*283 la_oenb[46]
*284 la_oenb[47]
*285 la_oenb[48]
*286 la_oenb[49]
*287 la_oenb[4]
*288 la_oenb[50]
*289 la_oenb[51]
*290 la_oenb[52]
*291 la_oenb[53]
*292 la_oenb[54]
*293 la_oenb[55]
*294 la_oenb[56]
*295 la_oenb[57]
*296 la_oenb[58]
*297 la_oenb[59]
*298 la_oenb[5]
*299 la_oenb[60]
*300 la_oenb[61]
*301 la_oenb[62]
*302 la_oenb[63]
*303 la_oenb[6]
*304 la_oenb[7]
*305 la_oenb[8]
*306 la_oenb[9]
*307 user_clock2
*308 user_irq[0]
*309 user_irq[1]
*310 user_irq[2]
*313 wb_clk_i
*314 wb_rst_i
*315 wbs_ack_o
*316 wbs_adr_i[0]
*317 wbs_adr_i[10]
*318 wbs_adr_i[11]
*319 wbs_adr_i[12]
*320 wbs_adr_i[13]
*321 wbs_adr_i[14]
*322 wbs_adr_i[15]
*323 wbs_adr_i[16]
*324 wbs_adr_i[17]
*325 wbs_adr_i[18]
*326 wbs_adr_i[19]
*327 wbs_adr_i[1]
*328 wbs_adr_i[20]
*329 wbs_adr_i[21]
*330 wbs_adr_i[22]
*331 wbs_adr_i[23]
*332 wbs_adr_i[24]
*333 wbs_adr_i[25]
*334 wbs_adr_i[26]
*335 wbs_adr_i[27]
*336 wbs_adr_i[28]
*337 wbs_adr_i[29]
*338 wbs_adr_i[2]
*339 wbs_adr_i[30]
*340 wbs_adr_i[31]
*341 wbs_adr_i[3]
*342 wbs_adr_i[4]
*343 wbs_adr_i[5]
*344 wbs_adr_i[6]
*345 wbs_adr_i[7]
*346 wbs_adr_i[8]
*347 wbs_adr_i[9]
*348 wbs_cyc_i
*349 wbs_dat_i[0]
*350 wbs_dat_i[10]
*351 wbs_dat_i[11]
*352 wbs_dat_i[12]
*353 wbs_dat_i[13]
*354 wbs_dat_i[14]
*355 wbs_dat_i[15]
*356 wbs_dat_i[16]
*357 wbs_dat_i[17]
*358 wbs_dat_i[18]
*359 wbs_dat_i[19]
*360 wbs_dat_i[1]
*361 wbs_dat_i[20]
*362 wbs_dat_i[21]
*363 wbs_dat_i[22]
*364 wbs_dat_i[23]
*365 wbs_dat_i[24]
*366 wbs_dat_i[25]
*367 wbs_dat_i[26]
*368 wbs_dat_i[27]
*369 wbs_dat_i[28]
*370 wbs_dat_i[29]
*371 wbs_dat_i[2]
*372 wbs_dat_i[30]
*373 wbs_dat_i[31]
*374 wbs_dat_i[3]
*375 wbs_dat_i[4]
*376 wbs_dat_i[5]
*377 wbs_dat_i[6]
*378 wbs_dat_i[7]
*379 wbs_dat_i[8]
*380 wbs_dat_i[9]
*381 wbs_dat_o[0]
*382 wbs_dat_o[10]
*383 wbs_dat_o[11]
*384 wbs_dat_o[12]
*385 wbs_dat_o[13]
*386 wbs_dat_o[14]
*387 wbs_dat_o[15]
*388 wbs_dat_o[16]
*389 wbs_dat_o[17]
*390 wbs_dat_o[18]
*391 wbs_dat_o[19]
*392 wbs_dat_o[1]
*393 wbs_dat_o[20]
*394 wbs_dat_o[21]
*395 wbs_dat_o[22]
*396 wbs_dat_o[23]
*397 wbs_dat_o[24]
*398 wbs_dat_o[25]
*399 wbs_dat_o[26]
*400 wbs_dat_o[27]
*401 wbs_dat_o[28]
*402 wbs_dat_o[29]
*403 wbs_dat_o[2]
*404 wbs_dat_o[30]
*405 wbs_dat_o[31]
*406 wbs_dat_o[3]
*407 wbs_dat_o[4]
*408 wbs_dat_o[5]
*409 wbs_dat_o[6]
*410 wbs_dat_o[7]
*411 wbs_dat_o[8]
*412 wbs_dat_o[9]
*413 wbs_sel_i[0]
*414 wbs_sel_i[1]
*415 wbs_sel_i[2]
*416 wbs_sel_i[3]
*417 wbs_stb_i
*418 wbs_we_i
*419 pwmaudio

*PORTS
io_in[0] I
io_in[10] I
io_in[11] I
io_in[12] I
io_in[13] I
io_in[14] I
io_in[15] I
io_in[16] I
io_in[17] I
io_in[18] I
io_in[19] I
io_in[1] I
io_in[20] I
io_in[21] I
io_in[22] I
io_in[23] I
io_in[24] I
io_in[25] I
io_in[26] I
io_in[27] I
io_in[28] I
io_in[29] I
io_in[2] I
io_in[30] I
io_in[31] I
io_in[32] I
io_in[33] I
io_in[34] I
io_in[35] I
io_in[36] I
io_in[37] I
io_in[3] I
io_in[4] I
io_in[5] I
io_in[6] I
io_in[7] I
io_in[8] I
io_in[9] I
io_oeb[0] O
io_oeb[10] O
io_oeb[11] O
io_oeb[12] O
io_oeb[13] O
io_oeb[14] O
io_oeb[15] O
io_oeb[16] O
io_oeb[17] O
io_oeb[18] O
io_oeb[19] O
io_oeb[1] O
io_oeb[20] O
io_oeb[21] O
io_oeb[22] O
io_oeb[23] O
io_oeb[24] O
io_oeb[25] O
io_oeb[26] O
io_oeb[27] O
io_oeb[28] O
io_oeb[29] O
io_oeb[2] O
io_oeb[30] O
io_oeb[31] O
io_oeb[32] O
io_oeb[33] O
io_oeb[34] O
io_oeb[35] O
io_oeb[36] O
io_oeb[37] O
io_oeb[3] O
io_oeb[4] O
io_oeb[5] O
io_oeb[6] O
io_oeb[7] O
io_oeb[8] O
io_oeb[9] O
io_out[0] O
io_out[10] O
io_out[11] O
io_out[12] O
io_out[13] O
io_out[14] O
io_out[15] O
io_out[16] O
io_out[17] O
io_out[18] O
io_out[19] O
io_out[1] O
io_out[20] O
io_out[21] O
io_out[22] O
io_out[23] O
io_out[24] O
io_out[25] O
io_out[26] O
io_out[27] O
io_out[28] O
io_out[29] O
io_out[2] O
io_out[30] O
io_out[31] O
io_out[32] O
io_out[33] O
io_out[34] O
io_out[35] O
io_out[36] O
io_out[37] O
io_out[3] O
io_out[4] O
io_out[5] O
io_out[6] O
io_out[7] O
io_out[8] O
io_out[9] O
la_data_in[0] I
la_data_in[10] I
la_data_in[11] I
la_data_in[12] I
la_data_in[13] I
la_data_in[14] I
la_data_in[15] I
la_data_in[16] I
la_data_in[17] I
la_data_in[18] I
la_data_in[19] I
la_data_in[1] I
la_data_in[20] I
la_data_in[21] I
la_data_in[22] I
la_data_in[23] I
la_data_in[24] I
la_data_in[25] I
la_data_in[26] I
la_data_in[27] I
la_data_in[28] I
la_data_in[29] I
la_data_in[2] I
la_data_in[30] I
la_data_in[31] I
la_data_in[32] I
la_data_in[33] I
la_data_in[34] I
la_data_in[35] I
la_data_in[36] I
la_data_in[37] I
la_data_in[38] I
la_data_in[39] I
la_data_in[3] I
la_data_in[40] I
la_data_in[41] I
la_data_in[42] I
la_data_in[43] I
la_data_in[44] I
la_data_in[45] I
la_data_in[46] I
la_data_in[47] I
la_data_in[48] I
la_data_in[49] I
la_data_in[4] I
la_data_in[50] I
la_data_in[51] I
la_data_in[52] I
la_data_in[53] I
la_data_in[54] I
la_data_in[55] I
la_data_in[56] I
la_data_in[57] I
la_data_in[58] I
la_data_in[59] I
la_data_in[5] I
la_data_in[60] I
la_data_in[61] I
la_data_in[62] I
la_data_in[63] I
la_data_in[6] I
la_data_in[7] I
la_data_in[8] I
la_data_in[9] I
la_data_out[0] O
la_data_out[10] O
la_data_out[11] O
la_data_out[12] O
la_data_out[13] O
la_data_out[14] O
la_data_out[15] O
la_data_out[16] O
la_data_out[17] O
la_data_out[18] O
la_data_out[19] O
la_data_out[1] O
la_data_out[20] O
la_data_out[21] O
la_data_out[22] O
la_data_out[23] O
la_data_out[24] O
la_data_out[25] O
la_data_out[26] O
la_data_out[27] O
la_data_out[28] O
la_data_out[29] O
la_data_out[2] O
la_data_out[30] O
la_data_out[31] O
la_data_out[32] O
la_data_out[33] O
la_data_out[34] O
la_data_out[35] O
la_data_out[36] O
la_data_out[37] O
la_data_out[38] O
la_data_out[39] O
la_data_out[3] O
la_data_out[40] O
la_data_out[41] O
la_data_out[42] O
la_data_out[43] O
la_data_out[44] O
la_data_out[45] O
la_data_out[46] O
la_data_out[47] O
la_data_out[48] O
la_data_out[49] O
la_data_out[4] O
la_data_out[50] O
la_data_out[51] O
la_data_out[52] O
la_data_out[53] O
la_data_out[54] O
la_data_out[55] O
la_data_out[56] O
la_data_out[57] O
la_data_out[58] O
la_data_out[59] O
la_data_out[5] O
la_data_out[60] O
la_data_out[61] O
la_data_out[62] O
la_data_out[63] O
la_data_out[6] O
la_data_out[7] O
la_data_out[8] O
la_data_out[9] O
la_oenb[0] I
la_oenb[10] I
la_oenb[11] I
la_oenb[12] I
la_oenb[13] I
la_oenb[14] I
la_oenb[15] I
la_oenb[16] I
la_oenb[17] I
la_oenb[18] I
la_oenb[19] I
la_oenb[1] I
la_oenb[20] I
la_oenb[21] I
la_oenb[22] I
la_oenb[23] I
la_oenb[24] I
la_oenb[25] I
la_oenb[26] I
la_oenb[27] I
la_oenb[28] I
la_oenb[29] I
la_oenb[2] I
la_oenb[30] I
la_oenb[31] I
la_oenb[32] I
la_oenb[33] I
la_oenb[34] I
la_oenb[35] I
la_oenb[36] I
la_oenb[37] I
la_oenb[38] I
la_oenb[39] I
la_oenb[3] I
la_oenb[40] I
la_oenb[41] I
la_oenb[42] I
la_oenb[43] I
la_oenb[44] I
la_oenb[45] I
la_oenb[46] I
la_oenb[47] I
la_oenb[48] I
la_oenb[49] I
la_oenb[4] I
la_oenb[50] I
la_oenb[51] I
la_oenb[52] I
la_oenb[53] I
la_oenb[54] I
la_oenb[55] I
la_oenb[56] I
la_oenb[57] I
la_oenb[58] I
la_oenb[59] I
la_oenb[5] I
la_oenb[60] I
la_oenb[61] I
la_oenb[62] I
la_oenb[63] I
la_oenb[6] I
la_oenb[7] I
la_oenb[8] I
la_oenb[9] I
user_clock2 I
user_irq[0] O
user_irq[1] O
user_irq[2] O
wb_clk_i I
wb_rst_i I
wbs_ack_o O
wbs_adr_i[0] I
wbs_adr_i[10] I
wbs_adr_i[11] I
wbs_adr_i[12] I
wbs_adr_i[13] I
wbs_adr_i[14] I
wbs_adr_i[15] I
wbs_adr_i[16] I
wbs_adr_i[17] I
wbs_adr_i[18] I
wbs_adr_i[19] I
wbs_adr_i[1] I
wbs_adr_i[20] I
wbs_adr_i[21] I
wbs_adr_i[22] I
wbs_adr_i[23] I
wbs_adr_i[24] I
wbs_adr_i[25] I
wbs_adr_i[26] I
wbs_adr_i[27] I
wbs_adr_i[28] I
wbs_adr_i[29] I
wbs_adr_i[2] I
wbs_adr_i[30] I
wbs_adr_i[31] I
wbs_adr_i[3] I
wbs_adr_i[4] I
wbs_adr_i[5] I
wbs_adr_i[6] I
wbs_adr_i[7] I
wbs_adr_i[8] I
wbs_adr_i[9] I
wbs_cyc_i I
wbs_dat_i[0] I
wbs_dat_i[10] I
wbs_dat_i[11] I
wbs_dat_i[12] I
wbs_dat_i[13] I
wbs_dat_i[14] I
wbs_dat_i[15] I
wbs_dat_i[16] I
wbs_dat_i[17] I
wbs_dat_i[18] I
wbs_dat_i[19] I
wbs_dat_i[1] I
wbs_dat_i[20] I
wbs_dat_i[21] I
wbs_dat_i[22] I
wbs_dat_i[23] I
wbs_dat_i[24] I
wbs_dat_i[25] I
wbs_dat_i[26] I
wbs_dat_i[27] I
wbs_dat_i[28] I
wbs_dat_i[29] I
wbs_dat_i[2] I
wbs_dat_i[30] I
wbs_dat_i[31] I
wbs_dat_i[3] I
wbs_dat_i[4] I
wbs_dat_i[5] I
wbs_dat_i[6] I
wbs_dat_i[7] I
wbs_dat_i[8] I
wbs_dat_i[9] I
wbs_dat_o[0] O
wbs_dat_o[10] O
wbs_dat_o[11] O
wbs_dat_o[12] O
wbs_dat_o[13] O
wbs_dat_o[14] O
wbs_dat_o[15] O
wbs_dat_o[16] O
wbs_dat_o[17] O
wbs_dat_o[18] O
wbs_dat_o[19] O
wbs_dat_o[1] O
wbs_dat_o[20] O
wbs_dat_o[21] O
wbs_dat_o[22] O
wbs_dat_o[23] O
wbs_dat_o[24] O
wbs_dat_o[25] O
wbs_dat_o[26] O
wbs_dat_o[27] O
wbs_dat_o[28] O
wbs_dat_o[29] O
wbs_dat_o[2] O
wbs_dat_o[30] O
wbs_dat_o[31] O
wbs_dat_o[3] O
wbs_dat_o[4] O
wbs_dat_o[5] O
wbs_dat_o[6] O
wbs_dat_o[7] O
wbs_dat_o[8] O
wbs_dat_o[9] O
wbs_sel_i[0] I
wbs_sel_i[1] I
wbs_sel_i[2] I
wbs_sel_i[3] I
wbs_stb_i I
wbs_we_i I

*D_NET *9 0.278444
*CONN
*P io_in[17] I
*I *419:io_adsr_choice[0] I *D PWMaudio
*CAP
1 io_in[17] 0.00102104
2 *419:io_adsr_choice[0] 0.0615873
3 *9:11 0.0615873
4 *9:9 0.0232564
5 *9:7 0.0242775
6 *419:io_adsr_choice[0] io_oeb[19] 0
7 *419:io_adsr_choice[0] *419:io_adsr_choice[1] 0.0155442
8 *419:io_adsr_choice[0] *419:io_adsr_choice[2] 0.000139629
9 *419:io_adsr_choice[0] *49:18 0.0298823
10 *9:9 io_oeb[17] 0
11 *9:9 io_oeb[19] 6.20684e-05
12 *9:9 *10:9 0.0610864
*RES
1 io_in[17] *9:7 11.53 
2 *9:7 *9:9 238.26 
3 *9:9 *9:11 4.5 
4 *9:11 *419:io_adsr_choice[0] 471.846 
*END

*D_NET *10 0.238175
*CONN
*P io_in[18] I
*I *419:io_adsr_choice[1] I *D PWMaudio
*CAP
1 io_in[18] 0.000999175
2 *419:io_adsr_choice[1] 0.0616851
3 *10:11 0.0616851
4 *10:9 0.010581
5 *10:7 0.0115802
6 *419:io_adsr_choice[1] *49:18 0.0150142
7 *419:io_adsr_choice[0] *419:io_adsr_choice[1] 0.0155442
8 *9:9 *10:9 0.0610864
*RES
1 io_in[18] *10:7 11.378 
2 *10:7 *10:9 147.516 
3 *10:9 *10:11 4.5 
4 *10:11 *419:io_adsr_choice[1] 471.998 
*END

*D_NET *11 0.18223
*CONN
*P io_in[19] I
*I *419:io_adsr_choice[2] I *D PWMaudio
*CAP
1 io_in[19] 0.0690929
2 *419:io_adsr_choice[2] 0.000677868
3 *11:9 0.00226897
4 *11:7 0.0015911
5 *11:5 0.0690929
6 *11:9 *52:9 0.016971
7 *11:9 *55:9 0.0203922
8 *11:9 *62:9 0.00200326
9 *419:io_adsr_choice[0] *419:io_adsr_choice[2] 0.000139629
*RES
1 io_in[19] *11:5 474.126 
2 *11:5 *11:7 4.5 
3 *11:7 *11:9 59.508 
4 *11:9 *419:io_adsr_choice[2] 9.25 
*END

*D_NET *13 0.268524
*CONN
*P io_in[20] I
*I *419:io_trigger I *D PWMaudio
*CAP
1 io_in[20] 0.00171509
2 *419:io_trigger 0.00140545
3 *13:19 0.00164876
4 *13:13 0.110505
5 *13:11 0.111977
6 *419:io_trigger *14:17 0.00791922
7 *419:io_trigger *15:17 0.0019859
8 *419:io_trigger *19:13 0.000723661
9 *419:io_trigger *57:6 9.66393e-05
10 *13:11 *51:18 0.00408059
11 *13:19 *14:17 0.00743044
12 *13:19 *19:13 9.65026e-05
13 *13:19 *20:13 0.0138288
14 *13:19 *30:13 0.00334349
15 *13:19 *56:12 0.00176767
*RES
1 io_in[20] *13:11 25.53 
2 *13:11 *13:13 797.772 
3 *13:13 *13:19 38.852 
4 *13:19 *419:io_trigger 35.736 
*END

*D_NET *14 0.339866
*CONN
*P io_in[21] I
*I *419:io_loop I *D PWMaudio
*CAP
1 io_in[21] 0.000999175
2 *419:io_loop 0
3 *14:17 0.000598425
4 *14:15 0.000598425
5 *14:13 0.110148
6 *14:11 0.110148
7 *14:9 0.00251998
8 *14:7 0.00351916
9 *14:9 *51:18 0.0355615
10 *14:9 *53:14 0.0469986
11 *14:17 *30:13 0.00706621
12 *14:17 *31:13 0.0003165
13 *14:17 *56:12 0.001734
14 *14:17 *57:6 0.00430798
15 *419:io_trigger *14:17 0.00791922
16 *13:19 *14:17 0.00743044
*RES
1 io_in[21] *14:7 11.378 
2 *14:7 *14:9 115.748 
3 *14:9 *14:11 4.5 
4 *14:11 *14:13 797.316 
5 *14:13 *14:15 4.5 
6 *14:15 *14:17 48.108 
7 *14:17 *419:io_loop 4.5 
*END

*D_NET *15 0.421049
*CONN
*P io_in[22] I
*I *419:io_adsr_switch I *D PWMaudio
*CAP
1 io_in[22] 0.0012396
2 *419:io_adsr_switch 0.00011589
3 *15:17 0.00178416
4 *15:15 0.00166827
5 *15:13 0.110212
6 *15:11 0.111451
7 *15:11 *53:14 0.000197062
8 *15:17 *19:13 0.000891094
9 *15:17 *21:13 0.0931405
10 *15:17 *24:13 0.0909148
11 *15:17 *56:12 0.00744912
12 *15:17 *63:9 0
13 *419:io_trigger *15:17 0.0019859
*RES
1 io_in[22] *15:11 17.93 
2 *15:11 *15:13 797.468 
3 *15:13 *15:15 4.5 
4 *15:15 *15:17 237.652 
5 *15:17 *419:io_adsr_switch 5.146 
*END

*D_NET *16 0.352031
*CONN
*P io_in[23] I
*I *419:io_note_length[0] I *D PWMaudio
*CAP
1 io_in[23] 0.0690673
2 *419:io_note_length[0] 0.000742564
3 *16:9 0.009672
4 *16:7 0.00892943
5 *16:5 0.0690673
6 *16:9 *52:9 0.0724547
7 *16:9 *55:9 0.122097
*RES
1 io_in[23] *16:5 474.126 
2 *16:5 *16:7 4.5 
3 *16:7 *16:9 294.5 
4 *16:9 *419:io_note_length[0] 9.25 
*END

*D_NET *17 0.303932
*CONN
*P io_in[24] I
*I *419:io_note_length[1] I *D PWMaudio
*CAP
1 io_in[24] 0.00143913
2 *419:io_note_length[1] 0.000960219
3 *17:13 0.0532264
4 *17:11 0.0522662
5 *17:9 0.0503619
6 *17:7 0.051801
7 *419:io_note_length[1] *41:5 0.000199166
8 *17:9 *21:9 0.0934879
9 *17:9 *26:9 0.000179821
10 *17:13 *26:7 9.98921e-06
*RES
1 io_in[24] *17:7 14.418 
2 *17:7 *17:9 460.636 
3 *17:9 *17:11 4.5 
4 *17:11 *17:13 371.716 
5 *17:13 *419:io_note_length[1] 11.226 
*END

*D_NET *18 0.252995
*CONN
*P io_in[25] I
*I *419:io_note_length[2] I *D PWMaudio
*CAP
1 io_in[25] 0.00252599
2 *419:io_note_length[2] 0.00470389
3 *18:13 0.0564581
4 *18:11 0.0517542
5 *18:9 0.0382284
6 *18:7 0.0407544
7 *18:9 *20:9 0.0450475
8 *18:9 *25:9 0.0135225
*RES
1 io_in[25] *18:7 21.41 
2 *18:7 *18:9 378.1 
3 *18:9 *18:11 4.5 
4 *18:11 *18:13 368.372 
5 *18:13 *419:io_note_length[2] 36.306 
*END

*D_NET *19 0.656881
*CONN
*P io_in[26] I
*I *419:io_frequency[0] I *D PWMaudio
*CAP
1 io_in[26] 0.00282188
2 *419:io_frequency[0] 6.97646e-05
3 *19:13 0.000973507
4 *19:11 0.000903742
5 *19:9 0.0622618
6 *19:7 0.0650837
7 *419:io_frequency[0] *419:io_frequency[2] 4.93816e-06
8 *19:9 *22:9 0.204288
9 *19:9 *31:11 7.98438e-05
10 *19:13 *20:13 0.152791
11 *19:13 *24:13 0.151929
12 *19:13 *56:12 0.0139627
13 *419:io_trigger *19:13 0.000723661
14 *13:19 *19:13 9.65026e-05
15 *15:17 *19:13 0.000891094
*RES
1 io_in[26] *19:7 23.386 
2 *19:7 *19:9 678.148 
3 *19:9 *19:11 4.5 
4 *19:11 *19:13 370.956 
5 *19:13 *419:io_frequency[0] 4.842 
*END

*D_NET *20 0.545843
*CONN
*P io_in[27] I
*I *419:io_frequency[1] I *D PWMaudio
*CAP
1 io_in[27] 0.00298118
2 *419:io_frequency[1] 0.000167488
3 *20:13 0.00559324
4 *20:11 0.00542575
5 *20:9 0.0478284
6 *20:7 0.0508096
7 *20:9 *25:9 0.157515
8 *20:13 *24:13 0.000478829
9 *20:13 *30:13 0.0486644
10 *20:13 *56:12 0.0147118
11 *13:19 *20:13 0.0138288
12 *18:9 *20:9 0.0450475
13 *19:13 *20:13 0.152791
*RES
1 io_in[27] *20:7 21.106 
2 *20:7 *20:9 620.54 
3 *20:9 *20:11 4.5 
4 *20:11 *20:13 370.804 
5 *20:13 *419:io_frequency[1] 5.374 
*END

*D_NET *21 0.591204
*CONN
*P io_in[28] I
*I *419:io_frequency[2] I *D PWMaudio
*CAP
1 io_in[28] 0.00174222
2 *419:io_frequency[2] 0.00015299
3 *21:13 0.00224756
4 *21:11 0.00209457
5 *21:9 0.041986
6 *21:7 0.0437282
7 *419:io_frequency[2] *419:clk 0
8 *21:9 io_oeb[32] 0.0120303
9 *21:9 *26:9 0.00412478
10 *21:9 *27:9 0.110026
11 *21:13 *24:13 0.0313296
12 *21:13 *26:13 0.155109
13 *21:13 *57:6 0
14 *21:13 *63:9 0
15 *419:io_frequency[0] *419:io_frequency[2] 4.93816e-06
16 *15:17 *21:13 0.0931405
17 *17:9 *21:9 0.0934879
*RES
1 io_in[28] *21:7 14.266 
2 *21:7 *21:9 563.692 
3 *21:9 *21:11 4.5 
4 *21:11 *21:13 380.988 
5 *21:13 *419:io_frequency[2] 5.298 
*END

*D_NET *22 0.47463
*CONN
*P io_in[29] I
*I *419:io_frequency[3] I *D PWMaudio
*CAP
1 io_in[29] 0.00292615
2 *419:io_frequency[3] 0.00041265
3 *22:13 0.0112476
4 *22:11 0.0108349
5 *22:9 0.0164426
6 *22:7 0.0193688
7 *419:io_frequency[3] *419:io_frequency[5] 0.00279948
8 *419:io_frequency[3] *419:io_frequency[8] 0.000285856
9 *419:io_frequency[3] *51:12 0
10 *419:io_frequency[3] *53:8 0.00237179
11 *419:io_frequency[3] *57:6 0.0100175
12 *22:9 *28:9 0.0337997
13 *22:9 *31:11 0.0181441
14 *22:9 *65:10 0.0354829
15 *22:13 *419:io_frequency[5] 3.17618e-05
16 *22:13 *25:13 0.0353419
17 *22:13 *57:6 0.0708352
18 *19:9 *22:9 0.204288
*RES
1 io_in[29] *22:7 23.538 
2 *22:7 *22:9 504.564 
3 *22:9 *22:11 4.5 
4 *22:11 *22:13 343.064 
5 *22:13 *419:io_frequency[3] 28.896 
*END

*D_NET *24 0.548662
*CONN
*P io_in[30] I
*I *419:io_frequency[4] I *D PWMaudio
*CAP
1 io_in[30] 0.00229981
2 *419:io_frequency[4] 0.000110291
3 *24:13 0.00134918
4 *24:11 0.00123889
5 *24:9 0.0265226
6 *24:7 0.0288224
7 *419:io_frequency[4] *419:io_frequency[6] 4.84463e-06
8 *24:9 io_oeb[23] 0.179854
9 *24:9 *30:9 0.0201314
10 *24:9 *57:10 0.000607455
11 *24:13 *30:13 0.000144589
12 *24:13 *56:12 0.0129238
13 *24:13 *57:6 0
14 *15:17 *24:13 0.0909148
15 *19:13 *24:13 0.151929
16 *20:13 *24:13 0.000478829
17 *21:13 *24:13 0.0313296
*RES
1 io_in[30] *24:7 19.13 
2 *24:7 *24:9 448.476 
3 *24:9 *24:11 4.5 
4 *24:11 *24:13 370.652 
5 *24:13 *419:io_frequency[4] 4.994 
*END

*D_NET *25 0.499789
*CONN
*P io_in[31] I
*I *419:io_frequency[5] I *D PWMaudio
*CAP
1 io_in[31] 0.00263055
2 *419:io_frequency[5] 0.00141449
3 *25:13 0.0117754
4 *25:11 0.0103609
5 *25:9 0.00329811
6 *25:7 0.00592866
7 *419:io_frequency[5] *419:io_frequency[8] 0.000115068
8 *419:io_frequency[5] *28:13 0.00147493
9 *419:io_frequency[5] *51:12 0.000147576
10 *419:io_frequency[5] *53:8 0.00236404
11 *25:9 *29:9 0.0119797
12 *25:9 *68:10 0.105357
13 *25:13 *28:13 0.133646
14 *25:13 *57:6 8.5955e-05
15 *419:io_frequency[3] *419:io_frequency[5] 0.00279948
16 *18:9 *25:9 0.0135225
17 *20:9 *25:9 0.157515
18 *22:13 *419:io_frequency[5] 3.17618e-05
19 *22:13 *25:13 0.0353419
*RES
1 io_in[31] *25:7 21.258 
2 *25:7 *25:9 389.044 
3 *25:9 *25:11 4.5 
4 *25:11 *25:13 345.344 
5 *25:13 *419:io_frequency[5] 26.54 
*END

*D_NET *26 0.33183
*CONN
*P io_in[32] I
*I *419:io_frequency[6] I *D PWMaudio
*CAP
1 io_in[32] 0.00160079
2 *419:io_frequency[6] 0.000214364
3 *26:13 0.0268556
4 *26:11 0.0266412
5 *26:9 0.0282303
6 *26:7 0.0298311
7 *26:9 io_oeb[32] 0.00581038
8 *26:9 *27:9 0.0532182
9 *26:13 *63:9 0
10 *419:io_frequency[4] *419:io_frequency[6] 4.84463e-06
11 *17:9 *26:9 0.000179821
12 *17:13 *26:7 9.98921e-06
13 *21:9 *26:9 0.00412478
14 *21:13 *26:13 0.155109
*RES
1 io_in[32] *26:7 14.722 
2 *26:7 *26:9 334.02 
3 *26:9 *26:11 4.5 
4 *26:11 *26:13 374.148 
5 *26:13 *419:io_frequency[6] 5.45 
*END

*D_NET *27 0.378659
*CONN
*P io_in[33] I
*I *419:io_frequency[7] I *D PWMaudio
*CAP
1 io_in[33] 0.00152942
2 *419:io_frequency[7] 0.000574783
3 *27:13 0.0274428
4 *27:11 0.026868
5 *27:9 0.00278569
6 *27:7 0.00431511
7 *419:io_frequency[7] *419:io_frequency[8] 8.45646e-05
8 *27:13 *54:12 0.151814
9 *21:9 *27:9 0.110026
10 *26:9 *27:9 0.0532182
*RES
1 io_in[33] *27:7 14.418 
2 *27:7 *27:9 271.7 
3 *27:9 *27:11 4.5 
4 *27:11 *27:13 370.804 
5 *27:13 *419:io_frequency[7] 16.616 
*END

*D_NET *28 0.295685
*CONN
*P io_in[34] I
*I *419:io_frequency[8] I *D PWMaudio
*CAP
1 io_in[34] 0.00304405
2 *419:io_frequency[8] 0.000161981
3 *28:13 0.0319442
4 *28:11 0.0317822
5 *28:9 0.0175146
6 *28:7 0.0205586
7 *28:9 *31:11 0.0178589
8 *28:13 *51:12 0.0034141
9 *419:io_frequency[3] *419:io_frequency[8] 0.000285856
10 *419:io_frequency[5] *419:io_frequency[8] 0.000115068
11 *419:io_frequency[5] *28:13 0.00147493
12 *419:io_frequency[7] *419:io_frequency[8] 8.45646e-05
13 *22:9 *28:9 0.0337997
14 *25:13 *28:13 0.133646
*RES
1 io_in[34] *28:7 23.842 
2 *28:7 *28:9 216.524 
3 *28:9 *28:11 4.5 
4 *28:11 *28:13 361.684 
5 *28:13 *419:io_frequency[8] 15.096 
*END

*D_NET *29 0.287662
*CONN
*P io_in[35] I
*I *419:io_frequency[9] I *D PWMaudio
*CAP
1 io_in[35] 0.00272056
2 *419:io_frequency[9] 0.000502418
3 *29:13 0.0260906
4 *29:11 0.0255882
5 *29:9 0.0121162
6 *29:7 0.0148368
7 *29:9 *68:10 0.0388136
8 *29:13 *49:16 0.00317316
9 *29:13 *54:12 0.151841
10 *25:9 *29:9 0.0119797
*RES
1 io_in[35] *29:7 21.562 
2 *29:7 *29:9 157.092 
3 *29:9 *29:11 4.5 
4 *29:11 *29:13 366.396 
5 *29:13 *419:io_frequency[9] 16.312 
*END

*D_NET *30 0.28065
*CONN
*P io_in[36] I
*I *419:io_frequency[10] I *D PWMaudio
*CAP
1 io_in[36] 0.00240374
2 *419:io_frequency[10] 0
3 *30:13 0.00550172
4 *30:11 0.00550172
5 *30:9 0.00861084
6 *30:7 0.0110146
7 *30:13 *31:13 0.152569
8 *30:13 *56:12 0.0148312
9 *30:13 *57:6 0.000867594
10 *13:19 *30:13 0.00334349
11 *14:17 *30:13 0.00706621
12 *20:13 *30:13 0.0486644
13 *24:9 *30:9 0.0201314
14 *24:13 *30:13 0.000144589
*RES
1 io_in[36] *30:7 19.434 
2 *30:7 *30:9 102.98 
3 *30:9 *30:11 4.5 
4 *30:11 *30:13 372.172 
5 *30:13 *419:io_frequency[10] 4.5 
*END

*D_NET *31 0.36463
*CONN
*P io_in[37] I
*I *419:io_frequency[11] I *D PWMaudio
*CAP
1 io_in[37] 0.00306519
2 *419:io_frequency[11] 0
3 *31:13 0.000874068
4 *31:11 0.00104462
5 *31:7 0.00323575
6 *31:13 *56:12 0.0141797
7 *31:13 *57:6 0.153262
8 *14:17 *31:13 0.0003165
9 *19:9 *31:11 7.98438e-05
10 *22:9 *31:11 0.0181441
11 *28:9 *31:11 0.0178589
12 *30:13 *31:13 0.152569
*RES
1 io_in[37] *31:7 23.69 
2 *31:7 *31:11 49.872 
3 *31:11 *31:13 369.74 
4 *31:13 *419:io_frequency[11] 4.5 
*END

*D_NET *40 0.201953
*CONN
*P io_oeb[10] O
*I *419:io_oeb_low[0] O *D PWMaudio
*CAP
1 io_oeb[10] 0.0595717
2 *419:io_oeb_low[0] 0.0391686
3 *40:7 0.0595717
4 *40:5 0.0391686
5 *40:5 *41:5 0.00447273
*RES
1 *419:io_oeb_low[0] *40:5 254.182 
2 *40:5 *40:7 4.5 
3 *40:7 io_oeb[10] 424.574 
*END

*D_NET *41 0.229656
*CONN
*P io_oeb[11] O
*I *419:io_oeb_low[1] O *D PWMaudio
*CAP
1 io_oeb[11] 0.0597277
2 *419:io_oeb_low[1] 0.0527645
3 *41:7 0.0597277
4 *41:5 0.0527645
5 *419:io_note_length[1] *41:5 0.000199166
6 *40:5 *41:5 0.00447273
*RES
1 *419:io_oeb_low[1] *41:5 307.838 
2 *41:5 *41:7 4.5 
3 *41:7 io_oeb[11] 425.486 
*END

*D_NET *47 0.242707
*CONN
*P io_oeb[17] O
*I *419:io_oeb_high[0] O *D PWMaudio
*CAP
1 io_oeb[17] 0.00105886
2 *419:io_oeb_high[0] 0
3 *47:10 0.111126
4 *47:8 0.110067
5 *47:6 0.0102277
6 *47:4 0.0102277
7 *9:9 io_oeb[17] 0
*RES
1 *419:io_oeb_high[0] *47:4 4.5 
2 *47:4 *47:6 73.34 
3 *47:6 *47:8 4.5 
4 *47:8 *47:10 798.38 
5 *47:10 io_oeb[17] 16.258 
*END

*D_NET *48 0.139885
*CONN
*P io_oeb[18] O
*I *419:io_oeb_high[1] O *D PWMaudio
*CAP
1 io_oeb[18] 0.00017018
2 *419:io_oeb_high[1] 0.0697724
3 *48:5 0.0699426
*RES
1 *419:io_oeb_high[1] *48:5 478.838 
2 *48:5 io_oeb[18] 1.786 
*END

*D_NET *49 0.282064
*CONN
*P io_oeb[19] O
*I *419:io_oeb_high[2] O *D PWMaudio
*CAP
1 io_oeb[19] 0.00131291
2 *419:io_oeb_high[2] 0.000502307
3 *49:18 0.110876
4 *49:16 0.11424
5 *49:12 0.00517904
6 *49:12 *57:6 0.00017557
7 *49:16 *54:12 0.00164613
8 *419:io_adsr_choice[0] io_oeb[19] 0
9 *419:io_adsr_choice[0] *49:18 0.0298823
10 *419:io_adsr_choice[1] *49:18 0.0150142
11 *9:9 io_oeb[19] 6.20684e-05
12 *29:13 *49:16 0.00317316
*RES
1 *419:io_oeb_high[2] *49:12 16.996 
2 *49:12 *49:16 45.312 
3 *49:16 *49:18 793.364 
4 *49:18 io_oeb[19] 18.082 
*END

*D_NET *51 0.28334
*CONN
*P io_oeb[20] O
*I *419:io_oeb_high[3] O *D PWMaudio
*CAP
1 io_oeb[20] 0.000977306
2 *419:io_oeb_high[3] 0.00322434
3 *51:18 0.00671503
4 *51:16 0.00573772
5 *51:14 0.109793
6 *51:12 0.113018
7 *51:12 *57:6 0.00067036
8 *419:io_frequency[3] *51:12 0
9 *419:io_frequency[5] *51:12 0.000147576
10 *13:11 *51:18 0.00408059
11 *14:9 *51:18 0.0355615
12 *28:13 *51:12 0.0034141
*RES
1 *419:io_oeb_high[3] *51:12 34.916 
2 *51:12 *51:14 795.796 
3 *51:14 *51:16 4.5 
4 *51:16 *51:18 88.084 
5 *51:18 io_oeb[20] 11.226 
*END

*D_NET *52 0.261868
*CONN
*P io_oeb[21] O
*I *419:io_oeb_high[4] O *D PWMaudio
*CAP
1 io_oeb[21] 0.0690582
2 *419:io_oeb_high[4] 0.000777255
3 *52:11 0.0690582
4 *52:9 0.0158324
5 *52:7 0.0166096
6 *52:9 *55:9 0.00110629
7 *11:9 *52:9 0.016971
8 *16:9 *52:9 0.0724547
*RES
1 *419:io_oeb_high[4] *52:7 9.402 
2 *52:7 *52:9 221.236 
3 *52:9 *52:11 4.5 
4 *52:11 io_oeb[21] 473.974 
*END

*D_NET *53 0.331828
*CONN
*P io_oeb[22] O
*I *419:io_oeb_high[5] O *D PWMaudio
*CAP
1 io_oeb[22] 0.00102104
2 *419:io_oeb_high[5] 9.83919e-06
3 *53:14 0.0299712
4 *53:12 0.0289501
5 *53:10 0.109967
6 *53:8 0.109977
7 *419:io_frequency[3] *53:8 0.00237179
8 *419:io_frequency[5] *53:8 0.00236404
9 *14:9 *53:14 0.0469986
10 *15:11 *53:14 0.000197062
*RES
1 *419:io_oeb_high[5] *53:8 14.7 
2 *53:8 *53:10 796.404 
3 *53:10 *53:12 4.5 
4 *53:12 *53:14 263.188 
5 *53:14 io_oeb[22] 11.53 
*END

*D_NET *54 0.823887
*CONN
*P io_oeb[23] O
*I *419:io_oeb_high[6] O *D PWMaudio
*CAP
1 io_oeb[23] 0.0381976
2 *419:io_oeb_high[6] 0.000492788
3 *54:14 0.0381976
4 *54:12 0.00196035
5 *54:10 0.00245314
6 io_oeb[23] *57:10 0.257429
7 *24:9 io_oeb[23] 0.179854
8 *27:13 *54:12 0.151814
9 *29:13 *54:12 0.151841
10 *49:16 *54:12 0.00164613
*RES
1 *419:io_oeb_high[6] *54:10 16.464 
2 *54:10 *54:12 377.188 
3 *54:12 *54:14 4.5 
4 *54:14 io_oeb[23] 800.47 
*END

*D_NET *55 0.571207
*CONN
*P io_oeb[24] O
*I *419:io_oeb_high[7] O *D PWMaudio
*CAP
1 io_oeb[24] 0.000737922
2 *419:io_oeb_high[7] 0.000707873
3 *55:13 0.0301923
4 *55:11 0.0294544
5 *55:9 0.00596107
6 *55:7 0.00666894
7 *55:9 *62:9 0.173045
8 *55:13 *58:13 0.102062
9 *55:13 *59:13 0.0787814
10 *11:9 *55:9 0.0203922
11 *16:9 *55:9 0.122097
12 *52:9 *55:9 0.00110629
*RES
1 *419:io_oeb_high[7] *55:7 9.098 
2 *55:7 *55:9 418.228 
3 *55:9 *55:11 4.5 
4 *55:11 *55:13 424.46 
5 *55:13 io_oeb[24] 9.858 
*END

*D_NET *56 0.422481
*CONN