*SPEF "ieee 1481-1999"
*DESIGN "PWMaudio"
*DATE "11:11:11 Fri 11 11, 1111"
*VENDOR "OpenRCX"
*PROGRAM "Parallel Extraction"
*VERSION "1.0"
*DESIGN_FLOW "NAME_SCOPE LOCAL" "PIN_CAP NONE"
*DIVIDER /
*DELIMITER :
*BUS_DELIMITER []
*T_UNIT 1 NS
*C_UNIT 1 PF
*R_UNIT 1 OHM
*L_UNIT 1 HENRY

*NAME_MAP
*1 clk
*2 io_adsr_choice[0]
*3 io_adsr_choice[1]
*4 io_adsr_choice[2]
*5 io_adsr_switch
*6 io_frequency[0]
*7 io_frequency[10]
*8 io_frequency[11]
*9 io_frequency[1]
*10 io_frequency[2]
*11 io_frequency[3]
*12 io_frequency[4]
*13 io_frequency[5]
*14 io_frequency[6]
*15 io_frequency[7]
*16 io_frequency[8]
*17 io_frequency[9]
*18 io_loop
*19 io_note_length[0]
*20 io_note_length[1]
*21 io_note_length[2]
*22 net27
*23 net37
*24 net38
*25 net39
*26 net40
*27 net41
*28 net42
*29 net43
*30 net44
*31 net45
*32 net46
*33 net28
*34 net47
*35 net29
*36 net30
*37 net31
*38 net32
*39 net33
*40 net34
*41 net35
*42 net36
*43 net25
*44 net26
*45 io_pwm_1
*46 io_pwm_2
*47 io_trigger
*48 reset
*51 _0000_
*52 _0001_
*53 _0002_
*54 _0003_
*55 _0004_
*56 _0005_
*57 _0006_
*58 _0007_
*59 _0008_
*60 _0009_
*61 _0010_
*62 _0011_
*63 _0012_
*64 _0013_
*65 _0014_
*66 _0015_
*67 _0016_
*68 _0017_
*69 _0018_
*70 _0019_
*71 _0020_
*72 _0021_
*73 _0022_
*74 _0023_
*75 _0024_
*76 _0025_
*77 _0026_
*78 _0027_
*79 _0028_
*80 _0029_
*81 _0030_
*82 _0031_
*83 _0032_
*84 _0033_
*85 _0034_
*86 _0035_
*87 _0036_
*88 _0037_
*89 _0038_
*90 _0039_
*91 _0040_
*92 _0041_
*93 _0042_
*94 _0043_
*95 _0044_
*96 _0045_
*97 _0046_
*98 _0047_
*99 _0048_
*100 _0049_
*101 _0050_
*102 _0051_
*103 _0052_
*104 _0053_
*105 _0054_
*106 _0055_
*107 _0056_
*108 _0057_
*109 _0058_
*110 _0059_
*111 _0060_
*112 _0061_
*113 _0062_
*114 _0063_
*115 _0064_
*116 _0065_
*117 _0066_
*118 _0067_
*119 _0068_
*120 _0069_
*121 _0070_
*122 _0071_
*123 _0072_
*124 _0073_
*125 _0074_
*126 _0075_
*127 _0076_
*128 _0077_
*129 _0078_
*130 _0079_
*131 _0080_
*132 _0081_
*133 _0082_
*134 _0083_
*135 _0084_
*136 _0085_
*137 _0086_
*138 _0087_
*139 _0088_
*140 _0089_
*141 _0090_
*142 _0091_
*143 _0092_
*144 _0093_
*145 _0094_
*146 _0095_
*147 _0096_
*148 _0097_
*149 _0098_
*150 _0099_
*151 _0100_
*152 _0101_
*153 _0102_
*154 _0103_
*155 _0104_
*156 _0105_
*157 _0106_
*158 _0107_
*159 _0108_
*160 _0109_
*161 _0110_
*162 _0111_
*163 _0112_
*164 _0113_
*165 _0114_
*166 _0115_
*167 _0116_
*168 _0117_
*169 _0118_
*170 _0119_
*171 _0120_
*172 _0121_
*173 _0122_
*174 _0123_
*175 _0124_
*176 _0125_
*177 _0126_
*178 _0127_
*179 _0128_
*180 _0129_
*181 _0130_
*182 _0131_
*183 _0132_
*184 _0133_
*185 _0134_
*186 _0135_
*187 _0136_
*188 _0137_
*189 _0138_
*190 _0139_
*191 _0140_
*192 _0141_
*193 _0142_
*194 _0143_
*195 _0144_
*196 _0145_
*197 _0146_
*198 _0147_
*199 _0148_
*200 _0149_
*201 _0150_
*202 _0151_
*203 _0152_
*204 _0153_
*205 _0154_
*206 _0155_
*207 _0156_
*208 _0157_
*209 _0158_
*210 _0159_
*211 _0160_
*212 _0161_
*213 _0162_
*214 _0163_
*215 _0164_
*216 _0165_
*217 _0166_
*218 _0167_
*219 _0168_
*220 _0169_
*221 _0170_
*222 _0171_
*223 _0172_
*224 _0173_
*225 _0174_
*226 _0175_
*227 _0176_
*228 _0177_
*229 _0178_
*230 _0179_
*231 _0180_
*232 _0181_
*233 _0182_
*234 _0183_
*235 _0184_
*236 _0185_
*237 _0186_
*238 _0187_
*239 _0188_
*240 _0189_
*241 _0190_
*242 _0191_
*243 _0192_
*244 _0193_
*245 _0194_
*246 _0195_
*247 _0196_
*248 _0197_
*249 _0198_
*250 _0199_
*251 _0200_
*252 _0201_
*253 _0202_
*254 _0203_
*255 _0204_
*256 _0205_
*257 _0206_
*258 _0207_
*259 _0208_
*260 _0209_
*261 _0210_
*262 _0211_
*263 _0212_
*264 _0213_
*265 _0214_
*266 _0215_
*267 _0216_
*268 _0217_
*269 _0218_
*270 _0219_
*271 _0220_
*272 _0221_
*273 _0222_
*274 _0223_
*275 _0224_
*276 _0225_
*277 _0226_
*278 _0227_
*279 _0228_
*280 _0229_
*281 _0230_
*282 _0231_
*283 _0232_
*284 _0233_
*285 _0234_
*286 _0235_
*287 _0236_
*288 _0237_
*289 _0238_
*290 _0239_
*291 _0240_
*292 _0241_
*293 _0242_
*294 _0243_
*295 _0244_
*296 _0245_
*297 _0246_
*298 _0247_
*299 _0248_
*300 _0249_
*301 _0250_
*302 _0251_
*303 _0252_
*304 _0253_
*305 _0254_
*306 _0255_
*307 _0256_
*308 _0257_
*309 _0258_
*310 _0259_
*311 _0260_
*312 _0261_
*313 _0262_
*314 _0263_
*315 _0264_
*316 _0265_
*317 _0266_
*318 _0267_
*319 _0268_
*320 _0269_
*321 _0270_
*322 _0271_
*323 _0272_
*324 _0273_
*325 _0274_
*326 _0275_
*327 _0276_
*328 _0277_
*329 _0278_
*330 _0279_
*331 _0280_
*332 _0281_
*333 _0282_
*334 _0283_
*335 _0284_
*336 _0285_
*337 _0286_
*338 _0287_
*339 _0288_
*340 _0289_
*341 _0290_
*342 _0291_
*343 _0292_
*344 _0293_
*345 _0294_
*346 _0295_
*347 _0296_
*348 _0297_
*349 _0298_
*350 _0299_
*351 _0300_
*352 _0301_
*353 _0302_
*354 _0303_
*355 _0304_
*356 _0305_
*357 _0306_
*358 _0307_
*359 _0308_
*360 _0309_
*361 _0310_
*362 _0311_
*363 _0312_
*364 _0313_
*365 _0314_
*366 _0315_
*367 _0316_
*368 _0317_
*369 _0318_
*370 _0319_
*371 _0320_
*372 _0321_
*373 _0322_
*374 _0323_
*375 _0324_
*376 _0325_
*377 _0326_
*378 _0327_
*379 _0328_
*380 _0329_
*381 _0330_
*382 _0331_
*383 _0332_
*384 _0333_
*385 _0334_
*386 _0335_
*387 _0336_
*388 _0337_
*389 _0338_
*390 _0339_
*391 _0340_
*392 _0341_
*393 _0342_
*394 _0343_
*395 _0344_
*396 _0345_
*397 _0346_
*398 _0347_
*399 _0348_
*400 _0349_
*401 _0350_
*402 _0351_
*403 _0352_
*404 _0353_
*405 _0354_
*406 _0355_
*407 _0356_
*408 _0357_
*409 _0358_
*410 _0359_
*411 _0360_
*412 _0361_
*413 _0362_
*414 _0363_
*415 _0364_
*416 _0365_
*417 _0366_
*418 _0367_
*419 _0368_
*420 _0369_
*421 _0370_
*422 _0371_
*423 _0372_
*424 _0373_
*425 _0374_
*426 _0375_
*427 _0376_
*428 _0377_
*429 _0378_
*430 _0379_
*431 _0380_
*432 _0381_
*433 _0382_
*434 _0383_
*435 _0384_
*436 _0385_
*437 _0386_
*438 _0387_
*439 _0388_
*440 _0389_
*441 _0390_
*442 _0391_
*443 _0392_
*444 _0393_
*445 _0394_
*446 _0395_
*447 _0396_
*448 _0397_
*449 _0398_
*450 _0399_
*451 _0400_
*452 _0401_
*453 _0402_
*454 _0403_
*455 _0404_
*456 _0405_
*457 _0406_
*458 _0407_
*459 _0408_
*460 _0409_
*461 _0410_
*462 _0411_
*463 _0412_
*464 _0413_
*465 _0414_
*466 _0415_
*467 _0416_
*468 _0417_
*469 _0418_
*470 _0419_
*471 _0420_
*472 _0421_
*473 _0422_
*474 _0423_
*475 _0424_
*476 _0425_
*477 _0426_
*478 _0427_
*479 _0428_
*480 _0429_
*481 _0430_
*482 _0431_
*483 _0432_
*484 _0433_
*485 _0434_
*486 _0435_
*487 _0436_
*488 _0437_
*489 _0438_
*490 _0439_
*491 _0440_
*492 _0441_
*493 _0442_
*494 _0443_
*495 _0444_
*496 _0445_
*497 _0446_
*498 _0447_
*499 _0448_
*500 _0449_
*501 _0450_
*502 _0451_
*503 _0452_
*504 _0453_
*505 _0454_
*506 _0455_
*507 _0456_
*508 _0457_
*509 _0458_
*510 _0459_
*511 _0460_
*512 _0461_
*513 _0462_
*514 _0463_
*515 _0464_
*516 _0465_
*517 _0466_
*518 _0467_
*519 _0468_
*520 _0469_
*521 _0470_
*522 _0471_
*523 _0472_
*524 _0473_
*525 _0474_
*526 _0475_
*527 _0476_
*528 _0477_
*529 _0478_
*530 _0479_
*531 _0480_
*532 _0481_
*533 _0482_
*534 _0483_
*535 _0484_
*536 _0485_
*537 _0486_
*538 _0487_
*539 _0488_
*540 _0489_
*541 _0490_
*542 _0491_
*543 _0492_
*544 _0493_
*545 _0494_
*546 _0495_
*547 _0496_
*548 _0497_
*549 _0498_
*550 _0499_
*551 _0500_
*552 _0501_
*553 _0502_
*554 _0503_
*555 _0504_
*556 _0505_
*557 _0506_
*558 _0507_
*559 _0508_
*560 _0509_
*561 _0510_
*562 _0511_
*563 _0512_
*564 _0513_
*565 _0514_
*566 _0515_
*567 _0516_
*568 _0517_
*569 _0518_
*570 _0519_
*571 _0520_
*572 _0521_
*573 _0522_
*574 _0523_
*575 _0524_
*576 _0525_
*577 _0526_
*578 _0527_
*579 _0528_
*580 _0529_
*581 _0530_
*582 _0531_
*583 _0532_
*584 _0533_
*585 _0534_
*586 _0535_
*587 _0536_
*588 _0537_
*589 _0538_
*590 _0539_
*591 _0540_
*592 _0541_
*593 _0542_
*594 _0543_
*595 _0544_
*596 _0545_
*597 _0546_
*598 _0547_
*599 _0548_
*600 _0549_
*601 _0550_
*602 _0551_
*603 _0552_
*604 _0553_
*605 _0554_
*606 _0555_
*607 _0556_
*608 _0557_
*609 _0558_
*610 _0559_
*611 _0560_
*612 _0561_
*613 _0562_
*614 _0563_
*615 _0564_
*616 _0565_
*617 _0566_
*618 _0567_
*619 _0568_
*620 _0569_
*621 _0570_
*622 _0571_
*623 _0572_
*624 _0573_
*625 _0574_
*626 _0575_
*627 _0576_
*628 _0577_
*629 _0578_
*630 _0579_
*631 _0580_
*632 _0581_
*633 _0582_
*634 _0583_
*635 _0584_
*636 _0585_
*637 _0586_
*638 _0587_
*639 _0588_
*640 _0589_
*641 _0590_
*642 _0591_
*643 _0592_
*644 _0593_
*645 _0594_
*646 _0595_
*647 _0596_
*648 _0597_
*649 _0598_
*650 _0599_
*651 _0600_
*652 _0601_
*653 _0602_
*654 _0603_
*655 _0604_
*656 _0605_
*657 _0606_
*658 _0607_
*659 _0608_
*660 _0609_
*661 _0610_
*662 _0611_
*663 _0612_
*664 _0613_
*665 _0614_
*666 _0615_
*667 _0616_
*668 _0617_
*669 _0618_
*670 _0619_
*671 _0620_
*672 _0621_
*673 _0622_
*674 _0623_
*675 _0624_
*676 _0625_
*677 _0626_
*678 _0627_
*679 _0628_
*680 _0629_
*681 _0630_
*682 _0631_
*683 _0632_
*684 _0633_
*685 _0634_
*686 _0635_
*687 _0636_
*688 _0637_
*689 _0638_
*690 _0639_
*691 _0640_
*692 _0641_
*693 _0642_
*694 _0643_
*695 _0644_
*696 _0645_
*697 _0646_
*698 _0647_
*699 _0648_
*700 _0649_
*701 _0650_
*702 _0651_
*703 _0652_
*704 _0653_
*705 _0654_
*706 _0655_
*707 _0656_
*708 _0657_
*709 _0658_
*710 _0659_
*711 _0660_
*712 _0661_
*713 _0662_
*714 _0663_
*715 _0664_
*716 _0665_
*717 _0666_
*718 _0667_
*719 _0668_
*720 _0669_
*721 _0670_
*722 _0671_
*723 _0672_
*724 _0673_
*725 _0674_
*726 _0675_
*727 _0676_
*728 _0677_
*729 _0678_
*730 _0679_
*731 _0680_
*732 _0681_
*733 _0682_
*734 _0683_
*735 _0684_
*736 _0685_
*737 _0686_
*738 _0687_
*739 _0688_
*740 _0689_
*741 _0690_
*742 _0691_
*743 _0692_
*744 _0693_
*745 _0694_
*746 _0695_
*747 _0696_
*748 _0697_
*749 _0698_
*750 _0699_
*751 _0700_
*752 _0701_
*753 _0702_
*754 _0703_
*755 _0704_
*756 _0705_
*757 _0706_
*758 _0707_
*759 _0708_
*760 _0709_
*761 _0710_
*762 _0711_
*763 _0712_
*764 _0713_
*765 _0714_
*766 _0715_
*767 _0716_
*768 _0717_
*769 _0718_
*770 _0719_
*771 _0720_
*772 _0721_
*773 _0722_
*774 _0723_
*775 _0724_
*776 _0725_
*777 _0726_
*778 _0727_
*779 _0728_
*780 _0729_
*781 _0730_
*782 _0731_
*783 _0732_
*784 _0733_
*785 _0734_
*786 _0735_
*787 _0736_
*788 _0737_
*789 _0738_
*790 _0739_
*791 _0740_
*792 _0741_
*793 _0742_
*794 _0743_
*795 _0744_
*796 _0745_
*797 _0746_
*798 _0747_
*799 _0748_
*800 _0749_
*801 _0750_
*802 _0751_
*803 _0752_
*804 _0753_
*805 _0754_
*806 _0755_
*807 _0756_
*808 _0757_
*809 _0758_
*810 _0759_
*811 _0760_
*812 _0761_
*813 _0762_
*814 _0763_
*815 _0764_
*816 _0765_
*817 _0766_
*818 _0767_
*819 _0768_
*820 _0769_
*821 _0770_
*822 _0771_
*823 _0772_
*824 _0773_
*825 _0774_
*826 _0775_
*827 _0776_
*828 _0777_
*829 _0778_
*830 _0779_
*831 _0780_
*832 _0781_
*833 _0782_
*834 _0783_
*835 _0784_
*836 _0785_
*837 _0786_
*838 _0787_
*839 _0788_
*840 _0789_
*841 _0790_
*842 _0791_
*843 _0792_
*844 _0793_
*845 _0794_
*846 _0795_
*847 _0796_
*848 _0797_
*849 _0798_
*850 _0799_
*851 _0800_
*852 _0801_
*853 _0802_
*854 _0803_
*855 _0804_
*856 _0805_
*857 _0806_
*858 _0807_
*859 _0808_
*860 _0809_
*861 _0810_
*862 _0811_
*863 _0812_
*864 _0813_
*865 _0814_
*866 _0815_
*867 _0816_
*868 _0817_
*869 _0818_
*870 _0819_
*871 _0820_
*872 _0821_
*873 _0822_
*874 _0823_
*875 _0824_
*876 _0825_
*877 _0826_
*878 _0827_
*879 _0828_
*880 _0829_
*881 _0830_
*882 _0831_
*883 _0832_
*884 _0833_
*885 _0834_
*886 _0835_
*887 _0836_
*888 _0837_
*889 _0838_
*890 _0839_
*891 _0840_
*892 _0841_
*893 _0842_
*894 _0843_
*895 _0844_
*896 _0845_
*897 _0846_
*898 _0847_
*899 _0848_
*900 _0849_
*901 _0850_
*902 _0851_
*903 _0852_
*904 _0853_
*905 _0854_
*906 _0855_
*907 _0856_
*908 _0857_
*909 _0858_
*910 _0859_
*911 _0860_
*912 _0861_
*913 _0862_
*914 _0863_
*915 _0864_
*916 _0865_
*917 _0866_
*918 _0867_
*919 _0868_
*920 _0869_
*921 _0870_
*922 _0871_
*923 _0872_
*924 _0873_
*925 _0874_
*926 _0875_
*927 _0876_
*928 _0877_
*929 _0878_
*930 _0879_
*931 _0880_
*932 _0881_
*933 _0882_
*934 _0883_
*935 _0884_
*936 _0885_
*937 _0886_
*938 _0887_
*939 _0888_
*940 _0889_
*941 _0890_
*942 _0891_
*943 _0892_
*944 _0893_
*945 _0894_
*946 _0895_
*947 _0896_
*948 _0897_
*949 _0898_
*950 _0899_
*951 _0900_
*952 _0901_
*953 _0902_
*954 _0903_
*955 _0904_
*956 _0905_
*957 _0906_
*958 _0907_
*959 _0908_
*960 _0909_
*961 _0910_
*962 _0911_
*963 _0912_
*964 _0913_
*965 _0914_
*966 _0915_
*967 _0916_
*968 _0917_
*969 _0918_
*970 _0919_
*971 _0920_
*972 _0921_
*973 _0922_
*974 _0923_
*975 _0924_
*976 _0925_
*977 _0926_
*978 _0927_
*979 _0928_
*980 _0929_
*981 _0930_
*982 _0931_
*983 _0932_
*984 _0933_
*985 _0934_
*986 _0935_
*987 _0936_
*988 _0937_
*989 _0938_
*990 _0939_
*991 _0940_
*992 _0941_
*993 _0942_
*994 _0943_
*995 _0944_
*996 _0945_
*997 _0946_
*998 _0947_
*999 _0948_
*1000 _0949_
*1001 _0950_
*1002 _0951_
*1003 _0952_
*1004 _0953_
*1005 _0954_
*1006 _0955_
*1007 _0956_
*1008 _0957_
*1009 _0958_
*1010 _0959_
*1011 _0960_
*1012 _0961_
*1013 _0962_
*1014 _0963_
*1015 _0964_
*1016 _0965_
*1017 _0966_
*1018 _0967_
*1019 _0968_
*1020 _0969_
*1021 _0970_
*1022 _0971_
*1023 _0972_
*1024 _0973_
*1025 _0974_
*1026 _0975_
*1027 _0976_
*1028 _0977_
*1029 _0978_
*1030 _0979_
*1031 _0980_
*1032 _0981_
*1033 _0982_
*1034 _0983_
*1035 _0984_
*1036 _0985_
*1037 _0986_
*1038 _0987_
*1039 _0988_
*1040 _0989_
*1041 _0990_
*1042 _0991_
*1043 _0992_
*1044 _0993_
*1045 _0994_
*1046 _0995_
*1047 _0996_
*1048 _0997_
*1049 _0998_
*1050 _0999_
*1051 _1000_
*1052 _1001_
*1053 _1002_
*1054 _1003_
*1055 _1004_
*1056 _1005_
*1057 _1006_
*1058 _1007_
*1059 _1008_
*1060 _1009_
*1061 _1010_
*1062 _1011_
*1063 _1012_
*1064 _1013_
*1065 _1014_
*1066 _1015_
*1067 _1016_
*1068 _1017_
*1069 _1018_
*1070 _1019_
*1071 _1020_
*1072 _1021_
*1073 _1022_
*1074 _1023_
*1075 _1024_
*1076 _1025_
*1077 _1026_
*1078 _1027_
*1079 _1028_
*1080 _1029_
*1081 _1030_
*1082 _1031_
*1083 _1032_
*1084 _1033_
*1085 _1034_
*1086 _1035_
*1087 _1036_
*1088 _1037_
*1089 _1038_
*1090 _1039_
*1091 _1040_
*1092 _1041_
*1093 _1042_
*1094 _1043_
*1095 _1044_
*1096 _1045_
*1097 _1046_
*1098 _1047_
*1099 _1048_
*1100 _1049_
*1101 _zz_when_PWMaudio_l108_2\[0\]
*1102 _zz_when_PWMaudio_l108_2\[10\]
*1103 _zz_when_PWMaudio_l108_2\[11\]
*1104 _zz_when_PWMaudio_l108_2\[12\]
*1105 _zz_when_PWMaudio_l108_2\[13\]
*1106 _zz_when_PWMaudio_l108_2\[14\]
*1107 _zz_when_PWMaudio_l108_2\[15\]
*1108 _zz_when_PWMaudio_l108_2\[16\]
*1109 _zz_when_PWMaudio_l108_2\[17\]
*1110 _zz_when_PWMaudio_l108_2\[18\]
*1111 _zz_when_PWMaudio_l108_2\[19\]
*1112 _zz_when_PWMaudio_l108_2\[1\]
*1113 _zz_when_PWMaudio_l108_2\[20\]
*1114 _zz_when_PWMaudio_l108_2\[21\]
*1115 _zz_when_PWMaudio_l108_2\[22\]
*1116 _zz_when_PWMaudio_l108_2\[23\]
*1117 _zz_when_PWMaudio_l108_2\[2\]
*1118 _zz_when_PWMaudio_l108_2\[3\]
*1119 _zz_when_PWMaudio_l108_2\[4\]
*1120 _zz_when_PWMaudio_l108_2\[5\]
*1121 _zz_when_PWMaudio_l108_2\[6\]
*1122 _zz_when_PWMaudio_l108_2\[7\]
*1123 _zz_when_PWMaudio_l108_2\[8\]
*1124 _zz_when_PWMaudio_l108_2\[9\]
*1125 clknet_0_clk
*1126 clknet_3_0__leaf_clk
*1127 clknet_3_1__leaf_clk
*1128 clknet_3_2__leaf_clk
*1129 clknet_3_3__leaf_clk
*1130 clknet_3_4__leaf_clk
*1131 clknet_3_5__leaf_clk
*1132 clknet_3_6__leaf_clk
*1133 clknet_3_7__leaf_clk
*1134 fsm_adsr_level_adsr\[0\]
*1135 fsm_adsr_level_adsr\[1\]
*1136 fsm_adsr_level_adsr\[2\]
*1137 fsm_adsr_level_adsr\[3\]
*1138 fsm_adsr_level_adsr\[4\]
*1139 fsm_adsr_level_adsr\[5\]
*1140 fsm_adsr_level_adsr\[6\]
*1141 fsm_adsr_level_adsr\[7\]
*1142 fsm_adsr_stateNext\[0\]
*1143 fsm_adsr_stateNext\[1\]
*1144 fsm_adsr_stateNext\[2\]
*1145 fsm_adsr_stateReg\[0\]
*1146 fsm_adsr_stateReg\[1\]
*1147 fsm_adsr_stateReg\[2\]
*1148 net1
*1149 net10
*1150 net11
*1151 net12
*1152 net13
*1153 net14
*1154 net15
*1155 net16
*1156 net17
*1157 net18
*1158 net19
*1159 net2
*1160 net20
*1161 net21
*1162 net22
*1163 net23
*1164 net24
*1165 net3
*1166 net4
*1167 net5
*1168 net6
*1169 net7
*1170 net8
*1171 net9
*1172 pwm_ctrl\.freq_counter_valueNext\[0\]
*1173 pwm_ctrl\.freq_counter_valueNext\[10\]
*1174 pwm_ctrl\.freq_counter_valueNext\[11\]
*1175 pwm_ctrl\.freq_counter_valueNext\[1\]
*1176 pwm_ctrl\.freq_counter_valueNext\[2\]
*1177 pwm_ctrl\.freq_counter_valueNext\[3\]
*1178 pwm_ctrl\.freq_counter_valueNext\[4\]
*1179 pwm_ctrl\.freq_counter_valueNext\[5\]
*1180 pwm_ctrl\.freq_counter_valueNext\[6\]
*1181 pwm_ctrl\.freq_counter_valueNext\[7\]
*1182 pwm_ctrl\.freq_counter_valueNext\[8\]
*1183 pwm_ctrl\.freq_counter_valueNext\[9\]
*1184 pwm_ctrl\.freq_counter_value\[0\]
*1185 pwm_ctrl\.freq_counter_value\[10\]
*1186 pwm_ctrl\.freq_counter_value\[11\]
*1187 pwm_ctrl\.freq_counter_value\[1\]
*1188 pwm_ctrl\.freq_counter_value\[2\]
*1189 pwm_ctrl\.freq_counter_value\[3\]
*1190 pwm_ctrl\.freq_counter_value\[4\]
*1191 pwm_ctrl\.freq_counter_value\[5\]
*1192 pwm_ctrl\.freq_counter_value\[6\]
*1193 pwm_ctrl\.freq_counter_value\[7\]
*1194 pwm_ctrl\.freq_counter_value\[8\]
*1195 pwm_ctrl\.freq_counter_value\[9\]
*1196 pwm_ctrl\.pwm_steps_counter_valueNext\[0\]
*1197 pwm_ctrl\.pwm_steps_counter_valueNext\[1\]
*1198 pwm_ctrl\.pwm_steps_counter_valueNext\[2\]
*1199 pwm_ctrl\.pwm_steps_counter_valueNext\[3\]
*1200 pwm_ctrl\.pwm_steps_counter_valueNext\[4\]
*1201 pwm_ctrl\.pwm_steps_counter_valueNext\[5\]
*1202 pwm_ctrl\.pwm_steps_counter_valueNext\[6\]
*1203 pwm_ctrl\.pwm_steps_counter_valueNext\[7\]
*1204 pwm_ctrl\.pwm_steps_counter_value\[0\]
*1205 pwm_ctrl\.pwm_steps_counter_value\[1\]
*1206 pwm_ctrl\.pwm_steps_counter_value\[2\]
*1207 pwm_ctrl\.pwm_steps_counter_value\[3\]
*1208 pwm_ctrl\.pwm_steps_counter_value\[4\]
*1209 pwm_ctrl\.pwm_steps_counter_value\[5\]
*1210 pwm_ctrl\.pwm_steps_counter_value\[6\]
*1211 pwm_ctrl\.pwm_steps_counter_value\[7\]
*1212 pwm_ctrl\.pwmdriver_1_1\.counter_valueNext\[0\]
*1213 pwm_ctrl\.pwmdriver_1_1\.counter_valueNext\[1\]
*1214 pwm_ctrl\.pwmdriver_1_1\.counter_valueNext\[2\]
*1215 pwm_ctrl\.pwmdriver_1_1\.counter_valueNext\[3\]
*1216 pwm_ctrl\.pwmdriver_1_1\.counter_valueNext\[4\]
*1217 pwm_ctrl\.pwmdriver_1_1\.counter_valueNext\[5\]
*1218 pwm_ctrl\.pwmdriver_1_1\.counter_valueNext\[6\]
*1219 pwm_ctrl\.pwmdriver_1_1\.counter_valueNext\[7\]
*1220 pwm_ctrl\.pwmdriver_1_1\.counter_value\[0\]
*1221 pwm_ctrl\.pwmdriver_1_1\.counter_value\[1\]
*1222 pwm_ctrl\.pwmdriver_1_1\.counter_value\[2\]
*1223 pwm_ctrl\.pwmdriver_1_1\.counter_value\[3\]
*1224 pwm_ctrl\.pwmdriver_1_1\.counter_value\[4\]
*1225 pwm_ctrl\.pwmdriver_1_1\.counter_value\[5\]
*1226 pwm_ctrl\.pwmdriver_1_1\.counter_value\[6\]
*1227 pwm_ctrl\.pwmdriver_1_1\.counter_value\[7\]
*1228 pwm_ctrl\.pwmdriver_2\.counter_valueNext\[0\]
*1229 pwm_ctrl\.pwmdriver_2\.counter_valueNext\[1\]
*1230 pwm_ctrl\.pwmdriver_2\.counter_valueNext\[2\]
*1231 pwm_ctrl\.pwmdriver_2\.counter_valueNext\[3\]
*1232 pwm_ctrl\.pwmdriver_2\.counter_valueNext\[4\]
*1233 pwm_ctrl\.pwmdriver_2\.counter_valueNext\[5\]
*1234 pwm_ctrl\.pwmdriver_2\.counter_valueNext\[6\]
*1235 pwm_ctrl\.pwmdriver_2\.counter_valueNext\[7\]
*1236 pwm_ctrl\.pwmdriver_2\.counter_value\[0\]
*1237 pwm_ctrl\.pwmdriver_2\.counter_value\[1\]
*1238 pwm_ctrl\.pwmdriver_2\.counter_value\[2\]
*1239 pwm_ctrl\.pwmdriver_2\.counter_value\[3\]
*1240 pwm_ctrl\.pwmdriver_2\.counter_value\[4\]
*1241 pwm_ctrl\.pwmdriver_2\.counter_value\[5\]
*1242 pwm_ctrl\.pwmdriver_2\.counter_value\[6\]
*1243 pwm_ctrl\.pwmdriver_2\.counter_value\[7\]
*1244 ANTENNA__1092__I
*1245 ANTENNA__1094__I
*1246 ANTENNA__1095__I
*1247 ANTENNA__1097__I
*1248 ANTENNA__1100__I
*1249 ANTENNA__1104__I
*1250 ANTENNA__1106__A2
*1251 ANTENNA__1108__I
*1252 ANTENNA__1113__A2
*1253 ANTENNA__1116__I
*1254 ANTENNA__1122__I
*1255 ANTENNA__1125__I
*1256 ANTENNA__1128__I
*1257 ANTENNA__1131__A2
*1258 ANTENNA__1133__A2
*1259 ANTENNA__1133__A4
*1260 ANTENNA__1134__I
*1261 ANTENNA__1138__A2
*1262 ANTENNA__1142__A2
*1263 ANTENNA__1157__I
*1264 ANTENNA__1158__I
*1265 ANTENNA__1160__I
*1266 ANTENNA__1162__I
*1267 ANTENNA__1166__A2
*1268 ANTENNA__1175__I
*1269 ANTENNA__1181__B2
*1270 ANTENNA__1188__A1
*1271 ANTENNA__1189__A1
*1272 ANTENNA__1194__A1
*1273 ANTENNA__1199__A1
*1274 ANTENNA__1201__I
*1275 ANTENNA__1203__A1
*1276 ANTENNA__1207__I
*1277 ANTENNA__1209__I
*1278 ANTENNA__1210__I
*1279 ANTENNA__1216__A1
*1280 ANTENNA__1217__A1
*1281 ANTENNA__1218__I
*1282 ANTENNA__1220__B
*1283 ANTENNA__1223__A1
*1284 ANTENNA__1227__I
*1285 ANTENNA__1230__A3
*1286 ANTENNA__1231__I
*1287 ANTENNA__1232__B
*1288 ANTENNA__1233__A2
*1289 ANTENNA__1242__A1
*1290 ANTENNA__1247__I
*1291 ANTENNA__1250__I
*1292 ANTENNA__1252__A2
*1293 ANTENNA__1252__B1
*1294 ANTENNA__1271__A1
*1295 ANTENNA__1297__A2
*1296 ANTENNA__1304__I
*1297 ANTENNA__1307__I0
*1298 ANTENNA__1307__I1
*1299 ANTENNA__1307__S
*1300 ANTENNA__1313__A1
*1301 ANTENNA__1323__A1
*1302 ANTENNA__1326__A1
*1303 ANTENNA__1331__A1
*1304 ANTENNA__1335__B
*1305 ANTENNA__1345__I
*1306 ANTENNA__1351__A1
*1307 ANTENNA__1362__A1
*1308 ANTENNA__1369__A1
*1309 ANTENNA__1370__I
*1310 ANTENNA__1377__A1
*1311 ANTENNA__1393__A1
*1312 ANTENNA__1394__A1
*1313 ANTENNA__1397__B2
*1314 ANTENNA__1398__A2
*1315 ANTENNA__1409__A1
*1316 ANTENNA__1414__I
*1317 ANTENNA__1416__A1
*1318 ANTENNA__1419__A1
*1319 ANTENNA__1426__A1
*1320 ANTENNA__1427__B2
*1321 ANTENNA__1430__A1
*1322 ANTENNA__1430__B2
*1323 ANTENNA__1436__A1
*1324 ANTENNA__1437__B2
*1325 ANTENNA__1438__A1
*1326 ANTENNA__1439__A2
*1327 ANTENNA__1439__B1
*1328 ANTENNA__1439__B2
*1329 ANTENNA__1442__A1
*1330 ANTENNA__1442__A2
*1331 ANTENNA__1443__A2
*1332 ANTENNA__1447__A1
*1333 ANTENNA__1447__A2
*1334 ANTENNA__1448__A1
*1335 ANTENNA__1450__A2
*1336 ANTENNA__1452__A1
*1337 ANTENNA__1453__I
*1338 ANTENNA__1454__A1
*1339 ANTENNA__1454__B
*1340 ANTENNA__1464__A1
*1341 ANTENNA__1464__A2
*1342 ANTENNA__1464__A4
*1343 ANTENNA__1465__A1
*1344 ANTENNA__1465__A2
*1345 ANTENNA__1467__I
*1346 ANTENNA__1477__A1
*1347 ANTENNA__1477__A2
*1348 ANTENNA__1485__A1
*1349 ANTENNA__1485__A2
*1350 ANTENNA__1486__A1
*1351 ANTENNA__1486__A2
*1352 ANTENNA__1487__A1
*1353 ANTENNA__1489__A1
*1354 ANTENNA__1494__A4
*1355 ANTENNA__1496__A1
*1356 ANTENNA__1497__A1
*1357 ANTENNA__1497__A3
*1358 ANTENNA__1498__A1
*1359 ANTENNA__1500__A1
*1360 ANTENNA__1503__A1
*1361 ANTENNA__1507__A1
*1362 ANTENNA__1509__A1
*1363 ANTENNA__1509__B
*1364 ANTENNA__1513__A1
*1365 ANTENNA__1515__A1
*1366 ANTENNA__1542__A1
*1367 ANTENNA__1549__B
*1368 ANTENNA__1552__A1
*1369 ANTENNA__1554__B
*1370 ANTENNA__1560__A1
*1371 ANTENNA__1564__A1
*1372 ANTENNA__1566__A1
*1373 ANTENNA__1576__B
*1374 ANTENNA__1578__B
*1375 ANTENNA__1579__B
*1376 ANTENNA__1586__B
*1377 ANTENNA__1590__A1
*1378 ANTENNA__1598__A2
*1379 ANTENNA__1605__A1
*1380 ANTENNA__1626__B
*1381 ANTENNA__1651__A2
*1382 ANTENNA__1656__A1
*1383 ANTENNA__1656__B
*1384 ANTENNA__1658__I
*1385 ANTENNA__1659__I
*1386 ANTENNA__1662__B
*1387 ANTENNA__1666__C
*1388 ANTENNA__1669__C
*1389 ANTENNA__1675__A1
*1390 ANTENNA__1681__A2
*1391 ANTENNA__1682__A1
*1392 ANTENNA__1685__A1
*1393 ANTENNA__1686__A1
*1394 ANTENNA__1687__A1
*1395 ANTENNA__1688__A3
*1396 ANTENNA__1689__A2
*1397 ANTENNA__1690__A2
*1398 ANTENNA__1693__A2
*1399 ANTENNA__1695__A1
*1400 ANTENNA__1700__B2
*1401 ANTENNA__1702__A1
*1402 ANTENNA__1709__B
*1403 ANTENNA__1711__A1
*1404 ANTENNA__1714__A1
*1405 ANTENNA__1715__A1
*1406 ANTENNA__1718__A2
*1407 ANTENNA__1723__A2
*1408 ANTENNA__1725__A1
*1409 ANTENNA__1726__A1
*1410 ANTENNA__1727__A2
*1411 ANTENNA__1728__A2
*1412 ANTENNA__1729__A1
*1413 ANTENNA__1730__A1
*1414 ANTENNA__1730__A2
*1415 ANTENNA__1730__B2
*1416 ANTENNA__1732__A2
*1417 ANTENNA__1734__A2
*1418 ANTENNA__1736__B1
*1419 ANTENNA__1737__A1
*1420 ANTENNA__1739__A1
*1421 ANTENNA__1740__B2
*1422 ANTENNA__1741__A2
*1423 ANTENNA__1751__A1
*1424 ANTENNA__1751__A2
*1425 ANTENNA__1766__I
*1426 ANTENNA__1767__A1
*1427 ANTENNA__1772__A1
*1428 ANTENNA__1776__I
*1429 ANTENNA__1790__A2
*1430 ANTENNA__1791__I
*1431 ANTENNA__1797__A1
*1432 ANTENNA__1804__A1
*1433 ANTENNA__1806__I
*1434 ANTENNA__1807__A2
*1435 ANTENNA__1809__I
*1436 ANTENNA__1820__I
*1437 ANTENNA__1821__I
*1438 ANTENNA__1823__I
*1439 ANTENNA__1829__A1
*1440 ANTENNA__1830__B2
*1441 ANTENNA__1834__I
*1442 ANTENNA__1835__I
*1443 ANTENNA__1837__I
*1444 ANTENNA__1840__A1
*1445 ANTENNA__1841__B2
*1446 ANTENNA__1846__I
*1447 ANTENNA__1847__I
*1448 ANTENNA__1866__B1
*1449 ANTENNA__1879__A1
*1450 ANTENNA__1880__A1
*1451 ANTENNA__1883__A1
*1452 ANTENNA__1884__A1
*1453 ANTENNA__1884__B1
*1454 ANTENNA__1885__A1
*1455 ANTENNA__1886__A1
*1456 ANTENNA__1887__A1
*1457 ANTENNA__1888__A1
*1458 ANTENNA__1889__A1
*1459 ANTENNA__1890__A1
*1460 ANTENNA__1893__A1
*1461 ANTENNA__1894__A1
*1462 ANTENNA__1895__A1
*1463 ANTENNA__1895__B1
*1464 ANTENNA__1935__I
*1465 ANTENNA__2047__I
*1466 ANTENNA__2055__I
*1467 ANTENNA__2056__I
*1468 ANTENNA__2057__I
*1469 ANTENNA__2058__I
*1470 ANTENNA__2059__I
*1471 ANTENNA__2060__I
*1472 ANTENNA__2061__I
*1473 ANTENNA__2062__I
*1474 ANTENNA__2063__I
*1475 ANTENNA__2064__I
*1476 ANTENNA__2065__I
*1477 ANTENNA__2070__I
*1478 ANTENNA__2076__I
*1479 ANTENNA__2081__I
*1480 ANTENNA__2082__I
*1481 ANTENNA__2083__I
*1482 ANTENNA__2084__I
*1483 ANTENNA__2085__I
*1484 ANTENNA__2086__I
*1485 ANTENNA__2091__I
*1486 ANTENNA__2097__I
*1487 ANTENNA__2098__I
*1488 ANTENNA__2099__I
*1489 ANTENNA__2100__I
*1490 ANTENNA__2101__I
*1491 ANTENNA__2102__I
*1492 ANTENNA__2107__I
*1493 ANTENNA__2112__I
*1494 ANTENNA__2117__I
*1495 ANTENNA__2134__I
*1496 ANTENNA__2135__I
*1497 ANTENNA__2136__I
*1498 ANTENNA__2137__I
*1499 ANTENNA__2141__CLK
*1500 ANTENNA__2143__CLK
*1501 ANTENNA__2144__CLK
*1502 ANTENNA__2145__CLK
*1503 ANTENNA__2146__CLK
*1504 ANTENNA__2147__CLK
*1505 ANTENNA__2148__CLK
*1506 ANTENNA__2150__CLK
*1507 ANTENNA__2151__CLK
*1508 ANTENNA__2152__CLK
*1509 ANTENNA__2153__CLK
*1510 ANTENNA__2154__CLK
*1511 ANTENNA__2155__CLK
*1512 ANTENNA__2156__CLK
*1513 ANTENNA__2157__CLK
*1514 ANTENNA__2158__CLK
*1515 ANTENNA__2159__CLK
*1516 ANTENNA__2161__CLK
*1517 ANTENNA__2162__CLK
*1518 ANTENNA__2163__CLK
*1519 ANTENNA__2165__CLK
*1520 ANTENNA__2166__CLK
*1521 ANTENNA__2167__CLK
*1522 ANTENNA__2168__CLK
*1523 ANTENNA__2169__CLK
*1524 ANTENNA__2170__CLK
*1525 ANTENNA__2171__CLK
*1526 ANTENNA__2172__CLK
*1527 ANTENNA__2173__CLK
*1528 ANTENNA__2174__CLK
*1529 ANTENNA__2175__CLK
*1530 ANTENNA__2176__CLK
*1531 ANTENNA__2177__CLK
*1532 ANTENNA__2178__CLK
*1533 ANTENNA__2179__CLK
*1534 ANTENNA__2180__CLK
*1535 ANTENNA__2181__CLK
*1536 ANTENNA__2182__CLK
*1537 ANTENNA__2183__CLK
*1538 ANTENNA__2184__CLK
*1539 ANTENNA__2185__CLK
*1540 ANTENNA__2186__CLK
*1541 ANTENNA__2187__CLK
*1542 ANTENNA__2188__CLK
*1543 ANTENNA__2189__CLK
*1544 ANTENNA__2190__CLK
*1545 ANTENNA__2191__CLK
*1546 ANTENNA__2192__CLK
*1547 ANTENNA__2193__CLK
*1548 ANTENNA__2194__CLK
*1549 ANTENNA__2195__CLK
*1550 ANTENNA__2196__CLK
*1551 ANTENNA__2197__CLK
*1552 ANTENNA__2198__CLK
*1553 ANTENNA__2199__CLK
*1554 ANTENNA__2200__CLK
*1555 ANTENNA__2201__CLK
*1556 ANTENNA__2202__CLK
*1557 ANTENNA__2203__CLK
*1558 ANTENNA__2204__CLK
*1559 ANTENNA__2205__CLK
*1560 ANTENNA__2206__CLK
*1561 ANTENNA__2207__CLK
*1562 ANTENNA_clkbuf_0_clk_I
*1563 ANTENNA_clkbuf_3_0__f_clk_I
*1564 ANTENNA_clkbuf_3_1__f_clk_I
*1565 ANTENNA_clkbuf_3_2__f_clk_I
*1566 ANTENNA_clkbuf_3_3__f_clk_I
*1567 ANTENNA_clkbuf_3_4__f_clk_I
*1568 ANTENNA_clkbuf_3_5__f_clk_I
*1569 ANTENNA_clkbuf_3_6__f_clk_I
*1570 ANTENNA_clkbuf_3_7__f_clk_I
*1571 ANTENNA_input10_I
*1572 ANTENNA_input11_I
*1573 ANTENNA_input12_I
*1574 ANTENNA_input13_I
*1575 ANTENNA_input14_I
*1576 ANTENNA_input15_I
*1577 ANTENNA_input16_I
*1578 ANTENNA_input17_I
*1579 ANTENNA_input18_I
*1580 ANTENNA_input19_I
*1581 ANTENNA_input1_I
*1582 ANTENNA_input20_I
*1583 ANTENNA_input21_I
*1584 ANTENNA_input22_I
*1585 ANTENNA_input2_I
*1586 ANTENNA_input3_I
*1587 ANTENNA_input4_I
*1588 ANTENNA_input5_I
*1589 ANTENNA_input6_I
*1590 ANTENNA_input7_I
*1591 ANTENNA_input8_I
*1592 ANTENNA_input9_I
*1593 ANTENNA_output23_I
*1594 ANTENNA_output24_I
*1595 FILLER_0_0_1022
*1596 FILLER_0_0_104
*1597 FILLER_0_0_1056
*1598 FILLER_0_0_1090
*1599 FILLER_0_0_1124
*1600 FILLER_0_0_1158
*1601 FILLER_0_0_1192
*1602 FILLER_0_0_1226
*1603 FILLER_0_0_1260
*1604 FILLER_0_0_1294
*1605 FILLER_0_0_1328
*1606 FILLER_0_0_1362
*1607 FILLER_0_0_138
*1608 FILLER_0_0_1396
*1609 FILLER_0_0_1430
*1610 FILLER_0_0_1464
*1611 FILLER_0_0_1498
*1612 FILLER_0_0_1532
*1613 FILLER_0_0_1566
*1614 FILLER_0_0_1600
*1615 FILLER_0_0_1634
*1616 FILLER_0_0_1668
*1617 FILLER_0_0_1702
*1618 FILLER_0_0_172
*1619 FILLER_0_0_1736
*1620 FILLER_0_0_1770
*1621 FILLER_0_0_1804
*1622 FILLER_0_0_1838
*1623 FILLER_0_0_1872
*1624 FILLER_0_0_1906
*1625 FILLER_0_0_1922
*1626 FILLER_0_0_1930
*1627 FILLER_0_0_1932
*1628 FILLER_0_0_1937
*1629 FILLER_0_0_1940
*1630 FILLER_0_0_1974
*1631 FILLER_0_0_2
*1632 FILLER_0_0_2008
*1633 FILLER_0_0_2042
*1634 FILLER_0_0_206
*1635 FILLER_0_0_2076
*1636 FILLER_0_0_2110
*1637 FILLER_0_0_2144
*1638 FILLER_0_0_2178
*1639 FILLER_0_0_2212
*1640 FILLER_0_0_2246
*1641 FILLER_0_0_2280
*1642 FILLER_0_0_2314
*1643 FILLER_0_0_2330
*1644 FILLER_0_0_2338
*1645 FILLER_0_0_2340
*1646 FILLER_0_0_2345
*1647 FILLER_0_0_2348
*1648 FILLER_0_0_240
*1649 FILLER_0_0_2416
*1650 FILLER_0_0_2439
*1651 FILLER_0_0_2450
*1652 FILLER_0_0_2452
*1653 FILLER_0_0_2467
*1654 FILLER_0_0_2475
*1655 FILLER_0_0_2479
*1656 FILLER_0_0_2481
*1657 FILLER_0_0_2484
*1658 FILLER_0_0_2488
*1659 FILLER_0_0_2503
*1660 FILLER_0_0_2511
*1661 FILLER_0_0_2515
*1662 FILLER_0_0_2518
*1663 FILLER_0_0_2534
*1664 FILLER_0_0_2536
*1665 FILLER_0_0_2547
*1666 FILLER_0_0_2549
*1667 FILLER_0_0_2552
*1668 FILLER_0_0_2570
*1669 FILLER_0_0_2574
*1670 FILLER_0_0_2582
*1671 FILLER_0_0_2586
*1672 FILLER_0_0_2620
*1673 FILLER_0_0_2624
*1674 FILLER_0_0_2626
*1675 FILLER_0_0_2645
*1676 FILLER_0_0_2649
*1677 FILLER_0_0_2651
*1678 FILLER_0_0_2654
*1679 FILLER_0_0_2688
*1680 FILLER_0_0_2722
*1681 FILLER_0_0_2730
*1682 FILLER_0_0_2735
*1683 FILLER_0_0_274
*1684 FILLER_0_0_2751
*1685 FILLER_0_0_2753
*1686 FILLER_0_0_2756
*1687 FILLER_0_0_2764
*1688 FILLER_0_0_2766
*1689 FILLER_0_0_2771
*1690 FILLER_0_0_2787
*1691 FILLER_0_0_2790
*1692 FILLER_0_0_2824
*1693 FILLER_0_0_2858
*1694 FILLER_0_0_2866
*1695 FILLER_0_0_2868
*1696 FILLER_0_0_2873
*1697 FILLER_0_0_2889
*1698 FILLER_0_0_2892
*1699 FILLER_0_0_2926
*1700 FILLER_0_0_2942
*1701 FILLER_0_0_2946
*1702 FILLER_0_0_2951
*1703 FILLER_0_0_2955
*1704 FILLER_0_0_2957
*1705 FILLER_0_0_2960
*1706 FILLER_0_0_2976
*1707 FILLER_0_0_2980
*1708 FILLER_0_0_2982
*1709 FILLER_0_0_2987
*1710 FILLER_0_0_2991
*1711 FILLER_0_0_2994
*1712 FILLER_0_0_3028
*1713 FILLER_0_0_3036
*1714 FILLER_0_0_3041
*1715 FILLER_0_0_3057
*1716 FILLER_0_0_3059