*SPEF "ieee 1481-1999"
*DESIGN "PWMaudio"
*DATE "11:11:11 Fri 11 11, 1111"
*VENDOR "OpenRCX"
*PROGRAM "Parallel Extraction"
*VERSION "1.0"
*DESIGN_FLOW "NAME_SCOPE LOCAL" "PIN_CAP NONE"
*DIVIDER /
*DELIMITER :
*BUS_DELIMITER []
*T_UNIT 1 NS
*C_UNIT 1 PF
*R_UNIT 1 OHM
*L_UNIT 1 HENRY

*NAME_MAP
*1 clk
*2 io_frequency[0]
*3 io_frequency[1]
*4 io_frequency[2]
*5 io_frequency[3]
*6 io_frequency[4]
*7 io_frequency[5]
*8 io_frequency[6]
*9 io_frequency[7]
*10 net12
*11 net13
*12 net14
*13 net15
*14 net16
*15 net17
*16 net18
*17 net19
*18 net11
*19 io_pwm_1
*20 reset
*23 _000_
*24 _001_
*25 _002_
*26 _003_
*27 _004_
*28 _005_
*29 _006_
*30 _007_
*31 _008_
*32 _009_
*33 _010_
*34 _011_
*35 _012_
*36 _013_
*37 _014_
*38 _015_
*39 _016_
*40 _017_
*41 _018_
*42 _019_
*43 _020_
*44 _021_
*45 _022_
*46 _023_
*47 _024_
*48 _025_
*49 _026_
*50 _027_
*51 _028_
*52 _029_
*53 _030_
*54 _031_
*55 _032_
*56 _033_
*57 _034_
*58 _035_
*59 _036_
*60 _037_
*61 _038_
*62 _039_
*63 _040_
*64 _041_
*65 _042_
*66 _043_
*67 _044_
*68 _045_
*69 _046_
*70 _047_
*71 _048_
*72 _049_
*73 _050_
*74 _051_
*75 _052_
*76 _053_
*77 _054_
*78 _055_
*79 _056_
*80 _057_
*81 _058_
*82 _059_
*83 _060_
*84 _061_
*85 _062_
*86 _063_
*87 _064_
*88 _065_
*89 _066_
*90 _067_
*91 _068_
*92 _069_
*93 _070_
*94 _071_
*95 _072_
*96 _073_
*97 _074_
*98 _075_
*99 _076_
*100 _077_
*101 _078_
*102 _079_
*103 _080_
*104 _081_
*105 _082_
*106 _083_
*107 _084_
*108 _085_
*109 _086_
*110 _087_
*111 _088_
*112 _089_
*113 _090_
*114 _091_
*115 _092_
*116 _093_
*117 _094_
*118 _095_
*119 _096_
*120 _097_
*121 _098_
*122 _099_
*123 _100_
*124 _101_
*125 _102_
*126 _103_
*127 _104_
*128 _105_
*129 _106_
*130 _107_
*131 _108_
*132 _109_
*133 _110_
*134 _111_
*135 _112_
*136 _113_
*137 _114_
*138 _115_
*139 _116_
*140 _117_
*141 _118_
*142 _119_
*143 _120_
*144 _121_
*145 _122_
*146 _123_
*147 _124_
*148 _125_
*149 _126_
*150 _127_
*151 _128_
*152 _129_
*153 _130_
*154 _131_
*155 _132_
*156 _133_
*157 _134_
*158 _135_
*159 _136_
*160 _137_
*161 _138_
*162 _139_
*163 _140_
*164 _141_
*165 _142_
*166 _143_
*167 _144_
*168 _145_
*169 _146_
*170 _147_
*171 _148_
*172 _149_
*173 _150_
*174 _151_
*175 _152_
*176 _153_
*177 _154_
*178 _155_
*179 _156_
*180 _157_
*181 _158_
*182 _159_
*183 _160_
*184 _161_
*185 _162_
*186 _163_
*187 _164_
*188 _165_
*189 _166_
*190 _167_
*191 _168_
*192 _169_
*193 _170_
*194 _171_
*195 _172_
*196 _173_
*197 _174_
*198 _175_
*199 _176_
*200 _177_
*201 _178_
*202 _179_
*203 _180_
*204 _181_
*205 _182_
*206 _183_
*207 _184_
*208 _185_
*209 _186_
*210 _187_
*211 _188_
*212 _189_
*213 _190_
*214 _191_
*215 _192_
*216 _193_
*217 _194_
*218 _195_
*219 _196_
*220 _197_
*221 _198_
*222 _199_
*223 _200_
*224 _201_
*225 _202_
*226 _203_
*227 _204_
*228 _205_
*229 _206_
*230 _207_
*231 _208_
*232 _209_
*233 _210_
*234 _211_
*235 _212_
*236 _213_
*237 _214_
*238 _215_
*239 _216_
*240 _217_
*241 _218_
*242 _219_
*243 _220_
*244 _221_
*245 _222_
*246 _223_
*247 _224_
*248 _225_
*249 _226_
*250 _227_
*251 _228_
*252 _229_
*253 _230_
*254 _231_
*255 _232_
*256 _233_
*257 _234_
*258 _235_
*259 _236_
*260 _237_
*261 _238_
*262 _239_
*263 _240_
*264 _241_
*265 _242_
*266 _243_
*267 _244_
*268 _245_
*269 _246_
*270 _247_
*271 _248_
*272 _249_
*273 _250_
*274 _251_
*275 _252_
*276 _253_
*277 _254_
*278 _255_
*279 _256_
*280 _257_
*281 _258_
*282 _259_
*283 _260_
*284 _261_
*285 _262_
*286 _263_
*287 _264_
*288 _265_
*289 _266_
*290 _267_
*291 _268_
*292 _269_
*293 _270_
*294 _271_
*295 _272_
*296 _273_
*297 _274_
*298 _275_
*299 _276_
*300 _277_
*301 _278_
*302 _279_
*303 _280_
*304 _281_
*305 _282_
*306 _283_
*307 _284_
*308 _285_
*309 _286_
*310 _287_
*311 _288_
*312 _289_
*313 _290_
*314 _291_
*315 _292_
*316 _293_
*317 _294_
*318 _295_
*319 _296_
*320 _297_
*321 _298_
*322 _299_
*323 _300_
*324 _301_
*325 _302_
*326 _303_
*327 _304_
*328 _305_
*329 _306_
*330 _307_
*331 _308_
*332 _309_
*333 _310_
*334 _311_
*335 _312_
*336 _313_
*337 _314_
*338 _315_
*339 _316_
*340 _317_
*341 _318_
*342 _319_
*343 _320_
*344 _321_
*345 _322_
*346 _323_
*347 _324_
*348 _325_
*349 _326_
*350 _327_
*351 _328_
*352 _329_
*353 _330_
*354 _331_
*355 _332_
*356 _333_
*357 _334_
*358 _335_
*359 _336_
*360 _337_
*361 _338_
*362 _339_
*363 _340_
*364 _341_
*365 _342_
*366 _343_
*367 _344_
*368 _345_
*369 _346_
*370 _347_
*371 _348_
*372 _349_
*373 _350_
*374 _351_
*375 _352_
*376 _353_
*377 _354_
*378 _355_
*379 _356_
*380 _357_
*381 _358_
*382 _359_
*383 _360_
*384 _361_
*385 _362_
*386 _363_
*387 _364_
*388 _365_
*389 _366_
*390 _367_
*391 _368_
*392 _369_
*393 _370_
*394 _371_
*395 _372_
*396 _373_
*397 _374_
*398 _375_
*399 _376_
*400 _377_
*401 _378_
*402 _379_
*403 _380_
*404 _381_
*405 _382_
*406 _383_
*407 _384_
*408 _385_
*409 _386_
*410 _387_
*411 _388_
*412 _389_
*413 _390_
*414 _391_
*415 _392_
*416 _393_
*417 _394_
*418 _395_
*419 _396_
*420 _397_
*421 _398_
*422 _399_
*423 _400_
*424 _401_
*425 _402_
*426 _403_
*427 _404_
*428 _405_
*429 _406_
*430 _407_
*431 _408_
*432 _409_
*433 _410_
*434 _411_
*435 _412_
*436 _413_
*437 _414_
*438 _415_
*439 _416_
*440 _417_
*441 _418_
*442 _419_
*443 _420_
*444 _421_
*445 _422_
*446 _423_
*447 _424_
*448 _425_
*449 _426_
*450 _427_
*451 _428_
*452 _429_
*453 _430_
*454 _431_
*455 _432_
*456 clknet_0_clk
*457 clknet_3_0__leaf_clk
*458 clknet_3_1__leaf_clk
*459 clknet_3_2__leaf_clk
*460 clknet_3_3__leaf_clk
*461 clknet_3_4__leaf_clk
*462 clknet_3_5__leaf_clk
*463 clknet_3_6__leaf_clk
*464 clknet_3_7__leaf_clk
*465 fsm_adsr_counter\[0\]
*466 fsm_adsr_counter\[10\]
*467 fsm_adsr_counter\[11\]
*468 fsm_adsr_counter\[12\]
*469 fsm_adsr_counter\[13\]
*470 fsm_adsr_counter\[14\]
*471 fsm_adsr_counter\[15\]
*472 fsm_adsr_counter\[16\]
*473 fsm_adsr_counter\[17\]
*474 fsm_adsr_counter\[18\]
*475 fsm_adsr_counter\[19\]
*476 fsm_adsr_counter\[1\]
*477 fsm_adsr_counter\[20\]
*478 fsm_adsr_counter\[21\]
*479 fsm_adsr_counter\[22\]
*480 fsm_adsr_counter\[23\]
*481 fsm_adsr_counter\[2\]
*482 fsm_adsr_counter\[3\]
*483 fsm_adsr_counter\[4\]
*484 fsm_adsr_counter\[5\]
*485 fsm_adsr_counter\[6\]
*486 fsm_adsr_counter\[7\]
*487 fsm_adsr_counter\[8\]
*488 fsm_adsr_counter\[9\]
*489 fsm_adsr_stateNext\[0\]
*490 fsm_adsr_stateNext\[1\]
*491 fsm_adsr_stateNext\[2\]
*492 fsm_adsr_stateReg\[0\]
*493 fsm_adsr_stateReg\[1\]
*494 fsm_adsr_stateReg\[2\]
*495 net1
*496 net10
*497 net2
*498 net20
*499 net21
*500 net22
*501 net23
*502 net24
*503 net3
*504 net4
*505 net5
*506 net6
*507 net7
*508 net8
*509 net9
*510 pwm_ctrl\.freq_counter_valueNext\[0\]
*511 pwm_ctrl\.freq_counter_valueNext\[1\]
*512 pwm_ctrl\.freq_counter_valueNext\[2\]
*513 pwm_ctrl\.freq_counter_valueNext\[3\]
*514 pwm_ctrl\.freq_counter_valueNext\[4\]
*515 pwm_ctrl\.freq_counter_valueNext\[5\]
*516 pwm_ctrl\.freq_counter_valueNext\[6\]
*517 pwm_ctrl\.freq_counter_valueNext\[7\]
*518 pwm_ctrl\.freq_counter_value\[0\]
*519 pwm_ctrl\.freq_counter_value\[1\]
*520 pwm_ctrl\.freq_counter_value\[2\]
*521 pwm_ctrl\.freq_counter_value\[3\]
*522 pwm_ctrl\.freq_counter_value\[4\]
*523 pwm_ctrl\.freq_counter_value\[5\]
*524 pwm_ctrl\.freq_counter_value\[6\]
*525 pwm_ctrl\.freq_counter_value\[7\]
*526 pwm_ctrl\.io_level\[0\]
*527 pwm_ctrl\.io_level\[1\]
*528 pwm_ctrl\.io_level\[2\]
*529 pwm_ctrl\.io_level\[3\]
*530 pwm_ctrl\.io_level\[4\]
*531 pwm_ctrl\.io_level\[5\]
*532 pwm_ctrl\.io_level\[6\]
*533 pwm_ctrl\.io_level\[7\]
*534 pwm_ctrl\.pwm_steps_counter_valueNext\[0\]
*535 pwm_ctrl\.pwm_steps_counter_valueNext\[1\]
*536 pwm_ctrl\.pwm_steps_counter_valueNext\[2\]
*537 pwm_ctrl\.pwm_steps_counter_valueNext\[3\]
*538 pwm_ctrl\.pwm_steps_counter_valueNext\[4\]
*539 pwm_ctrl\.pwm_steps_counter_valueNext\[5\]
*540 pwm_ctrl\.pwm_steps_counter_valueNext\[6\]
*541 pwm_ctrl\.pwm_steps_counter_valueNext\[7\]
*542 pwm_ctrl\.pwm_steps_counter_value\[0\]
*543 pwm_ctrl\.pwm_steps_counter_value\[1\]
*544 pwm_ctrl\.pwm_steps_counter_value\[2\]
*545 pwm_ctrl\.pwm_steps_counter_value\[3\]
*546 pwm_ctrl\.pwm_steps_counter_value\[4\]
*547 pwm_ctrl\.pwm_steps_counter_value\[5\]
*548 pwm_ctrl\.pwm_steps_counter_value\[6\]
*549 pwm_ctrl\.pwm_steps_counter_value\[7\]
*550 pwm_ctrl\.pwmdriver_1\.counter_valueNext\[0\]
*551 pwm_ctrl\.pwmdriver_1\.counter_valueNext\[1\]
*552 pwm_ctrl\.pwmdriver_1\.counter_valueNext\[2\]
*553 pwm_ctrl\.pwmdriver_1\.counter_valueNext\[3\]
*554 pwm_ctrl\.pwmdriver_1\.counter_valueNext\[4\]
*555 pwm_ctrl\.pwmdriver_1\.counter_valueNext\[5\]
*556 pwm_ctrl\.pwmdriver_1\.counter_valueNext\[6\]
*557 pwm_ctrl\.pwmdriver_1\.counter_valueNext\[7\]
*558 pwm_ctrl\.pwmdriver_1\.counter_value\[0\]
*559 pwm_ctrl\.pwmdriver_1\.counter_value\[1\]
*560 pwm_ctrl\.pwmdriver_1\.counter_value\[2\]
*561 pwm_ctrl\.pwmdriver_1\.counter_value\[3\]
*562 pwm_ctrl\.pwmdriver_1\.counter_value\[4\]
*563 pwm_ctrl\.pwmdriver_1\.counter_value\[5\]
*564 pwm_ctrl\.pwmdriver_1\.counter_value\[6\]
*565 pwm_ctrl\.pwmdriver_1\.counter_value\[7\]
*566 ANTENNA__467__A1
*567 ANTENNA__523__A2
*568 ANTENNA__523__B1
*569 ANTENNA__531__A2
*570 ANTENNA__534__A2
*571 ANTENNA__534__B1
*572 ANTENNA__542__B1
*573 ANTENNA__546__B1
*574 ANTENNA__548__A2
*575 ANTENNA__558__A1
*576 ANTENNA__573__A4
*577 ANTENNA__579__A1
*578 ANTENNA__583__A1
*579 ANTENNA__585__A2
*580 ANTENNA__590__A2
*581 ANTENNA__598__A1
*582 ANTENNA__598__B1
*583 ANTENNA__609__B1
*584 ANTENNA__614__B1
*585 ANTENNA__618__A1
*586 ANTENNA__621__A1
*587 ANTENNA__639__A2
*588 ANTENNA__643__A2
*589 ANTENNA__651__A2
*590 ANTENNA__651__B1
*591 ANTENNA__657__A2
*592 ANTENNA__657__B1
*593 ANTENNA__668__A1
*594 ANTENNA__672__A2
*595 ANTENNA__681__A2
*596 ANTENNA__682__A1
*597 ANTENNA__686__B
*598 ANTENNA__687__A2
*599 ANTENNA__688__A1
*600 ANTENNA__691__A1
*601 ANTENNA__693__A2
*602 ANTENNA__694__A1
*603 ANTENNA__696__A2
*604 ANTENNA__708__A1
*605 ANTENNA__709__A1
*606 ANTENNA__710__A1
*607 ANTENNA__711__I
*608 ANTENNA__712__I
*609 ANTENNA__718__I
*610 ANTENNA__720__B1
*611 ANTENNA__721__B1
*612 ANTENNA__722__I
*613 ANTENNA__723__A1
*614 ANTENNA__772__A1
*615 ANTENNA__816__I
*616 ANTENNA__824__I
*617 ANTENNA__829__I
*618 ANTENNA__834__I
*619 ANTENNA__839__I
*620 ANTENNA__845__I
*621 ANTENNA__850__I
*622 ANTENNA__855__I
*623 ANTENNA__860__I
*624 ANTENNA__861__I
*625 ANTENNA__862__I
*626 ANTENNA__863__I
*627 ANTENNA__864__I
*628 ANTENNA__865__I
*629 ANTENNA__898__CLK
*630 ANTENNA__899__CLK
*631 ANTENNA__900__CLK
*632 ANTENNA__901__CLK
*633 ANTENNA__902__CLK
*634 ANTENNA__903__CLK
*635 ANTENNA__904__CLK
*636 ANTENNA__905__CLK
*637 ANTENNA__906__CLK
*638 ANTENNA__907__CLK
*639 ANTENNA__914__CLK
*640 ANTENNA__915__CLK
*641 ANTENNA__916__CLK
*642 ANTENNA__917__CLK
*643 ANTENNA__918__CLK
*644 ANTENNA__919__CLK
*645 ANTENNA__920__CLK
*646 ANTENNA__921__CLK
*647 ANTENNA__922__CLK
*648 ANTENNA__923__CLK
*649 ANTENNA__929__CLK
*650 ANTENNA__930__CLK
*651 ANTENNA__931__CLK
*652 ANTENNA__932__CLK
*653 ANTENNA__933__CLK
*654 ANTENNA__934__CLK
*655 ANTENNA__935__CLK
*656 ANTENNA__936__CLK
*657 ANTENNA__937__CLK
*658 ANTENNA__938__CLK
*659 ANTENNA__939__CLK
*660 ANTENNA__940__CLK
*661 ANTENNA__941__CLK
*662 ANTENNA__942__CLK
*663 ANTENNA__943__CLK
*664 ANTENNA__944__CLK
*665 ANTENNA__945__CLK
*666 ANTENNA__946__CLK
*667 ANTENNA__947__CLK
*668 ANTENNA__950__CLK
*669 ANTENNA__951__CLK
*670 ANTENNA__952__CLK
*671 ANTENNA_clkbuf_0_clk_I
*672 ANTENNA_clkbuf_3_0__f_clk_I
*673 ANTENNA_clkbuf_3_1__f_clk_I
*674 ANTENNA_clkbuf_3_2__f_clk_I
*675 ANTENNA_clkbuf_3_3__f_clk_I
*676 ANTENNA_clkbuf_3_4__f_clk_I
*677 ANTENNA_clkbuf_3_5__f_clk_I
*678 ANTENNA_clkbuf_3_6__f_clk_I
*679 ANTENNA_clkbuf_3_7__f_clk_I
*680 ANTENNA_input1_I
*681 ANTENNA_input2_I
*682 ANTENNA_input3_I
*683 ANTENNA_input4_I
*684 ANTENNA_input5_I
*685 ANTENNA_input6_I
*686 ANTENNA_input7_I
*687 ANTENNA_input8_I
*688 ANTENNA_input9_I
*689 ANTENNA_output10_I
*690 FILLER_0_0_1022
*691 FILLER_0_0_104
*692 FILLER_0_0_1056
*693 FILLER_0_0_1090
*694 FILLER_0_0_1124
*695 FILLER_0_0_1158
*696 FILLER_0_0_1192
*697 FILLER_0_0_1226
*698 FILLER_0_0_1260
*699 FILLER_0_0_1294
*700 FILLER_0_0_1328
*701 FILLER_0_0_1362
*702 FILLER_0_0_138
*703 FILLER_0_0_1396
*704 FILLER_0_0_1430
*705 FILLER_0_0_1464
*706 FILLER_0_0_1498
*707 FILLER_0_0_1532
*708 FILLER_0_0_1566
*709 FILLER_0_0_1600
*710 FILLER_0_0_1634
*711 FILLER_0_0_1668
*712 FILLER_0_0_1702
*713 FILLER_0_0_172
*714 FILLER_0_0_1736
*715 FILLER_0_0_1770
*716 FILLER_0_0_1804
*717 FILLER_0_0_1838
*718 FILLER_0_0_1872
*719 FILLER_0_0_1906
*720 FILLER_0_0_1940
*721 FILLER_0_0_1974
*722 FILLER_0_0_2
*723 FILLER_0_0_2008
*724 FILLER_0_0_2042
*725 FILLER_0_0_206
*726 FILLER_0_0_2076
*727 FILLER_0_0_2110
*728 FILLER_0_0_2144
*729 FILLER_0_0_2178
*730 FILLER_0_0_2212
*731 FILLER_0_0_2246
*732 FILLER_0_0_2280
*733 FILLER_0_0_2314
*734 FILLER_0_0_2348
*735 FILLER_0_0_240
*736 FILLER_0_0_2416
*737 FILLER_0_0_2418
*738 FILLER_0_0_2427
*739 FILLER_0_0_2445
*740 FILLER_0_0_2447
*741 FILLER_0_0_2450
*742 FILLER_0_0_2458
*743 FILLER_0_0_2460
*744 FILLER_0_0_2465
*745 FILLER_0_0_2481
*746 FILLER_0_0_2484
*747 FILLER_0_0_2500
*748 FILLER_0_0_2511
*749 FILLER_0_0_2515
*750 FILLER_0_0_2518
*751 FILLER_0_0_2534
*752 FILLER_0_0_2542
*753 FILLER_0_0_2544
*754 FILLER_0_0_2549
*755 FILLER_0_0_2552
*756 FILLER_0_0_2556
*757 FILLER_0_0_2561
*758 FILLER_0_0_2577
*759 FILLER_0_0_2581
*760 FILLER_0_0_2583
*761 FILLER_0_0_2586
*762 FILLER_0_0_2634
*763 FILLER_0_0_2638
*764 FILLER_0_0_2646
*765 FILLER_0_0_2650
*766 FILLER_0_0_2654
*767 FILLER_0_0_2688
*768 FILLER_0_0_2722
*769 FILLER_0_0_2738
*770 FILLER_0_0_274
*771 FILLER_0_0_2746
*772 FILLER_0_0_2748
*773 FILLER_0_0_2753
*774 FILLER_0_0_2756
*775 FILLER_0_0_2790
*776 FILLER_0_0_2824
*777 FILLER_0_0_2858
*778 FILLER_0_0_2892
*779 FILLER_0_0_2926
*780 FILLER_0_0_2960
*781 FILLER_0_0_2998
*782 FILLER_0_0_3014
*783 FILLER_0_0_3022
*784 FILLER_0_0_3028
*785 FILLER_0_0_3062
*786 FILLER_0_0_308
*787 FILLER_0_0_3096
*788 FILLER_0_0_3130
*789 FILLER_0_0_3164
*790 FILLER_0_0_3198
*791 FILLER_0_0_3232
*792 FILLER_0_0_3266
*793 FILLER_0_0_3300
*794 FILLER_0_0_3334
*795 FILLER_0_0_3368
*796 FILLER_0_0_3402
*797 FILLER_0_0_342
*798 FILLER_0_0_3436
*799 FILLER_0_0_3470
*800 FILLER_0_0_3504
*801 FILLER_0_0_3538
*802 FILLER_0_0_3572
*803 FILLER_0_0_36
*804 FILLER_0_0_3606
*805 FILLER_0_0_3640
*806 FILLER_0_0_3674
*807 FILLER_0_0_3708
*808 FILLER_0_0_3742
*809 FILLER_0_0_376
*810 FILLER_0_0_3776
*811 FILLER_0_0_3810
*812 FILLER_0_0_3844
*813 FILLER_0_0_3878
*814 FILLER_0_0_3912
*815 FILLER_0_0_3946
*816 FILLER_0_0_3980
*817 FILLER_0_0_4014
*818 FILLER_0_0_4048
*819 FILLER_0_0_4082
*820 FILLER_0_0_410
*821 FILLER_0_0_4116
*822 FILLER_0_0_4150
*823 FILLER_0_0_4184
*824 FILLER_0_0_4218
*825 FILLER_0_0_4252
*826 FILLER_0_0_4286
*827 FILLER_0_0_4320
*828 FILLER_0_0_4354
*829 FILLER_0_0_4388
*830 FILLER_0_0_4422
*831 FILLER_0_0_444
*832 FILLER_0_0_4456
*833 FILLER_0_0_4490
*834 FILLER_0_0_4524
*835 FILLER_0_0_4558
*836 FILLER_0_0_4592
*837 FILLER_0_0_4626
*838 FILLER_0_0_4660
*839 FILLER_0_0_4694
*840 FILLER_0_0_4728
*841 FILLER_0_0_4762
*842 FILLER_0_0_478
*843 FILLER_0_0_4796
*844 FILLER_0_0_4830
*845 FILLER_0_0_4864
*846 FILLER_0_0_4898
*847 FILLER_0_0_4932
*848 FILLER_0_0_4966
*849 FILLER_0_0_512
*850 FILLER_0_0_546
*851 FILLER_0_0_580
*852 FILLER_0_0_614
*853 FILLER_0_0_648
*854 FILLER_0_0_682
*855 FILLER_0_0_70
*856 FILLER_0_0_716
*857 FILLER_0_0_750
*858 FILLER_0_0_784
*859 FILLER_0_0_818
*860 FILLER_0_0_852
*861 FILLER_0_0_886
*862 FILLER_0_0_920
*863 FILLER_0_0_954
*864 FILLER_0_0_988
*865 FILLER_0_100_101
*866 FILLER_0_100_1011
*867 FILLER_0_100_1017
*868 FILLER_0_100_107
*869 FILLER_0_100_1081
*870 FILLER_0_100_1087
*871 FILLER_0_100_1151
*872 FILLER_0_100_1157
*873 FILLER_0_100_1221
*874 FILLER_0_100_1227
*875 FILLER_0_100_1291
*876 FILLER_0_100_1297
*877 FILLER_0_100_1361
*878 FILLER_0_100_1367
*879 FILLER_0_100_1431
*880 FILLER_0_100_1437
*881 FILLER_0_100_1501
*882 FILLER_0_100_1507
*883 FILLER_0_100_1571
*884 FILLER_0_100_1577
*885 FILLER_0_100_1641
*886 FILLER_0_100_1647
*887 FILLER_0_100_171
*888 FILLER_0_100_1711
*889 FILLER_0_100_1717
*890 FILLER_0_100_177
*891 FILLER_0_100_1781
*892 FILLER_0_100_1787
*893 FILLER_0_100_1851
*894 FILLER_0_100_1857
*895 FILLER_0_100_1921
*896 FILLER_0_100_1927
*897 FILLER_0_100_1991
*898 FILLER_0_100_1997
*899 FILLER_0_100_2
*900 FILLER_0_100_2061
*901 FILLER_0_100_2067
*902 FILLER_0_100_2131
*903 FILLER_0_100_2137
*904 FILLER_0_100_2201
*905 FILLER_0_100_2207
*906 FILLER_0_100_2271
*907 FILLER_0_100_2277
*908 FILLER_0_100_2341
*909 FILLER_0_100_2347
*910 FILLER_0_100_241
*911 FILLER_0_100_2411
*912 FILLER_0_100_2417
*913 FILLER_0_100_247
*914 FILLER_0_100_2481
*915 FILLER_0_100_2487
*916 FILLER_0_100_2551
*917 FILLER_0_100_2557
*918 FILLER_0_100_2621
*919 FILLER_0_100_2627
*920 FILLER_0_100_2691
*921 FILLER_0_100_2697
*922 FILLER_0_100_2761
*923 FILLER_0_100_2767
*924 FILLER_0_100_2831
*925 FILLER_0_100_2837
*926 FILLER_0_100_2901
*927 FILLER_0_100_2907
*928 FILLER_0_100_2971
*929 FILLER_0_100_2977
*930 FILLER_0_100_3041
*931 FILLER_0_100_3047
*932 FILLER_0_100_311
*933 FILLER_0_100_3111
*934 FILLER_0_100_3117
*935 FILLER_0_100_317
*936 FILLER_0_100_3181
*937 FILLER_0_100_3187
*938 FILLER_0_100_3251
*939 FILLER_0_100_3257
*940 FILLER_0_100_3321
*941 FILLER_0_100_3327
*942 FILLER_0_100_3391
*943 FILLER_0_100_3397
*944 FILLER_0_100_34
*945 FILLER_0_100_3461
*946 FILLER_0_100_3467
*947 FILLER_0_100_3531
*948 FILLER_0_100_3537
*949 FILLER_0_100_3601
*950 FILLER_0_100_3607
*951 FILLER_0_100_3671
*952 FILLER_0_100_3677
*953 FILLER_0_100_37
*954 FILLER_0_100_3741
*955 FILLER_0_100_3747
*956 FILLER_0_100_381
*957 FILLER_0_100_3811
*958 FILLER_0_100_3817
*959 FILLER_0_100_387
*960 FILLER_0_100_3881
*961 FILLER_0_100_3887
*962 FILLER_0_100_3951
*963 FILLER_0_100_3957
*964 FILLER_0_100_4021
*965 FILLER_0_100_4027
*966 FILLER_0_100_4091
*967 FILLER_0_100_4097
*968 FILLER_0_100_4161
*969 FILLER_0_100_4167
*970 FILLER_0_100_4231
*971 FILLER_0_100_4237
*972 FILLER_0_100_4301
*973 FILLER_0_100_4307
*974 FILLER_0_100_4371
*975 FILLER_0_100_4377
*976 FILLER_0_100_4441
*977 FILLER_0_100_4447
*978 FILLER_0_100_451
*979 FILLER_0_100_4511
*980 FILLER_0_100_4517
*981 FILLER_0_100_457
*982 FILLER_0_100_4581
*983 FILLER_0_100_4587
*984 FILLER_0_100_4651
*985 FILLER_0_100_4657
*986 FILLER_0_100_4721
*987 FILLER_0_100_4727
*988 FILLER_0_100_4791
*989 FILLER_0_100_4797
*990 FILLER_0_100_4861
*991 FILLER_0_100_4867
*992 FILLER_0_100_4931
*993 FILLER_0_100_4937
*994 FILLER_0_100_4969
*995 FILLER_0_100_4973
*996 FILLER_0_100_521
*997 FILLER_0_100_527
*998 FILLER_0_100_591
*999 FILLER_0_100_597
*1000 FILLER_0_100_661
*1001 FILLER_0_100_667
*1002 FILLER_0_100_731
*1003 FILLER_0_100_737
*1004 FILLER_0_100_801
*1005 FILLER_0_100_807
*1006 FILLER_0_100_871
*1007 FILLER_0_100_877
*1008 FILLER_0_100_941
*1009 FILLER_0_100_947
*1010 FILLER_0_101_1046
*1011 FILLER_0_101_1052
*1012 FILLER_0_101_1116
*1013 FILLER_0_101_1122
*1014 FILLER_0_101_1186
*1015 FILLER_0_101_1192
*1016 FILLER_0_101_1256
*1017 FILLER_0_101_1262
*1018 FILLER_0_101_1326
*1019 FILLER_0_101_1332
*1020 FILLER_0_101_136
*1021 FILLER_0_101_1396
*1022 FILLER_0_101_1402
*1023 FILLER_0_101_142
*1024 FILLER_0_101_1466
*1025 FILLER_0_101_1472
*1026 FILLER_0_101_1536
*1027 FILLER_0_101_1542
*1028 FILLER_0_101_1606
*1029 FILLER_0_101_1612
*1030 FILLER_0_101_1676
*1031 FILLER_0_101_1682
*1032 FILLER_0_101_1746
*1033 FILLER_0_101_1752
*1034 FILLER_0_101_1816
*1035 FILLER_0_101_1822
*1036 FILLER_0_101_1886
*1037 FILLER_0_101_1892
*1038 FILLER_0_101_1956
*1039 FILLER_0_101_1962
*1040 FILLER_0_101_2
*1041 FILLER_0_101_2026
*1042 FILLER_0_101_2032
*1043 FILLER_0_101_206
*1044 FILLER_0_101_2096
*1045 FILLER_0_101_2102
*1046 FILLER_0_101_212
*1047 FILLER_0_101_2166
*1048 FILLER_0_101_2172
*1049 FILLER_0_101_2236
*1050 FILLER_0_101_2242
*1051 FILLER_0_101_2306
*1052 FILLER_0_101_2312
*1053 FILLER_0_101_2376
*1054 FILLER_0_101_2382
*1055 FILLER_0_101_2446
*1056 FILLER_0_101_2452
*1057 FILLER_0_101_2516
*1058 FILLER_0_101_2522
*1059 FILLER_0_101_2586
*1060 FILLER_0_101_2592
*1061 FILLER_0_101_2656
*1062 FILLER_0_101_2662
*1063 FILLER_0_101_2726
*1064 FILLER_0_101_2732
*1065 FILLER_0_101_276
*1066 FILLER_0_101_2796
*1067 FILLER_0_101_2802
*1068 FILLER_0_101_282
*1069 FILLER_0_101_2866
*1070 FILLER_0_101_2872
*1071 FILLER_0_101_2936
*1072 FILLER_0_101_2942
*1073 FILLER_0_101_3006
*1074 FILLER_0_101_3012
*1075 FILLER_0_101_3076
*1076 FILLER_0_101_3082
*1077 FILLER_0_101_3146
*1078 FILLER_0_101_3152
*1079 FILLER_0_101_3216
*1080 FILLER_0_101_3222
*1081 FILLER_0_101_3286
*1082 FILLER_0_101_3292
*1083 FILLER_0_101_3356
*1084 FILLER_0_101_3362
*1085 FILLER_0_101_3426
*1086 FILLER_0_101_3432
*1087 FILLER_0_101_346
*1088 FILLER_0_101_3496
*1089 FILLER_0_101_3502
*1090 FILLER_0_101_352
*1091 FILLER_0_101_3566
*1092 FILLER_0_101_3572
*1093 FILLER_0_101_3636
*1094 FILLER_0_101_3642
*1095 FILLER_0_101_3706
*1096 FILLER_0_101_3712
*1097 FILLER_0_101_3776
*1098 FILLER_0_101_3782
*1099 FILLER_0_101_3846
*1100 FILLER_0_101_3852
*1101 FILLER_0_101_3916
*1102 FILLER_0_101_3922
*1103 FILLER_0_101_3986
*1104 FILLER_0_101_3992
*1105 FILLER_0_101_4056
*1106 FILLER_0_101_4062
*1107 FILLER_0_101_4126
*1108 FILLER_0_101_4132
*1109 FILLER_0_101_416
*1110 FILLER_0_101_4196
*1111 FILLER_0_101_4202
*1112 FILLER_0_101_422
*1113 FILLER_0_101_4266
*1114 FILLER_0_101_4272
*1115 FILLER_0_101_4336
*1116 FILLER_0_101_4342
*1117 FILLER_0_101_4406
*1118 FILLER_0_101_4412
*1119 FILLER_0_101_4476
*1120 FILLER_0_101_4482
*1121 FILLER_0_101_4546
*1122 FILLER_0_101_4552
*1123 FILLER_0_101_4616
*1124 FILLER_0_101_4622
*1125 FILLER_0_101_4686
*1126 FILLER_0_101_4692
*1127 FILLER_0_101_4756
*1128 FILLER_0_101_4762
*1129 FILLER_0_101_4826
*1130 FILLER_0_101_4832
*1131 FILLER_0_101_486
*1132 FILLER_0_101_4896
*1133 FILLER_0_101_4902
*1134 FILLER_0_101_492
*1135 FILLER_0_101_4966
*1136 FILLER_0_101_4972
*1137 FILLER_0_101_556
*1138 FILLER_0_101_562
*1139 FILLER_0_101_626
*1140 FILLER_0_101_632
*1141 FILLER_0_101_66
*1142 FILLER_0_101_696
*1143 FILLER_0_101_702
*1144 FILLER_0_101_72
*1145 FILLER_0_101_766
*1146 FILLER_0_101_772
*1147 FILLER_0_101_836
*1148 FILLER_0_101_842
*1149 FILLER_0_101_906
*1150 FILLER_0_101_912
*1151 FILLER_0_101_976
*1152 FILLER_0_101_982
*1153 FILLER_0_102_101
*1154 FILLER_0_102_1011
*1155 FILLER_0_102_1017
*1156 FILLER_0_102_107
*1157 FILLER_0_102_1081
*1158 FILLER_0_102_1087
*1159 FILLER_0_102_1151
*1160 FILLER_0_102_1157
*1161 FILLER_0_102_1221
*1162 FILLER_0_102_1227
*1163 FILLER_0_102_1291
*1164 FILLER_0_102_1297
*1165 FILLER_0_102_1361
*1166 FILLER_0_102_1367
*1167 FILLER_0_102_1431
*1168 FILLER_0_102_1437
*1169 FILLER_0_102_1501
*1170 FILLER_0_102_1507
*1171 FILLER_0_102_1571
*1172 FILLER_0_102_1577
*1173 FILLER_0_102_1641
*1174 FILLER_0_102_1647
*1175 FILLER_0_102_171
*1176 FILLER_0_102_1711
*1177 FILLER_0_102_1717
*1178 FILLER_0_102_177
*1179 FILLER_0_102_1781
*1180 FILLER_0_102_1787
*1181 FILLER_0_102_1851
*1182 FILLER_0_102_1857
*1183 FILLER_0_102_1921
*1184 FILLER_0_102_1927
*1185 FILLER_0_102_1991
*1186 FILLER_0_102_1997
*1187 FILLER_0_102_2
*1188 FILLER_0_102_2061
*1189 FILLER_0_102_2067
*1190 FILLER_0_102_2131
*1191 FILLER_0_102_2137
*1192 FILLER_0_102_2201
*1193 FILLER_0_102_2207
*1194 FILLER_0_102_2271
*1195 FILLER_0_102_2277
*1196 FILLER_0_102_2341
*1197 FILLER_0_102_2347
*1198 FILLER_0_102_241
*1199 FILLER_0_102_2411
*1200 FILLER_0_102_2417
*1201 FILLER_0_102_247
*1202 FILLER_0_102_2481
*1203 FILLER_0_102_2487
*1204 FILLER_0_102_2551
*1205 FILLER_0_102_2557
*1206 FILLER_0_102_2621
*1207 FILLER_0_102_2627
*1208 FILLER_0_102_2691
*1209 FILLER_0_102_2697
*1210 FILLER_0_102_2761
*1211 FILLER_0_102_2767
*1212 FILLER_0_102_2831
*1213 FILLER_0_102_2837
*1214 FILLER_0_102_2901
*1215 FILLER_0_102_2907
*1216 FILLER_0_102_2971
*1217 FILLER_0_102_2977
*1218 FILLER_0_102_3041
*1219 FILLER_0_102_3047
*1220 FILLER_0_102_311
*1221 FILLER_0_102_3111
*1222 FILLER_0_102_3117
*1223 FILLER_0_102_317
*1224 FILLER_0_102_3181
*1225 FILLER_0_102_3187
*1226 FILLER_0_102_3251
*1227 FILLER_0_102_3257
*1228 FILLER_0_102_3321
*1229 FILLER_0_102_3327
*1230 FILLER_0_102_3391
*1231 FILLER_0_102_3397
*1232 FILLER_0_102_34
*1233 FILLER_0_102_3461
*1234 FILLER_0_102_3467
*1235 FILLER_0_102_3531
*1236 FILLER_0_102_3537
*1237 FILLER_0_102_3601
*1238 FILLER_0_102_3607
*1239 FILLER_0_102_3671
*1240 FILLER_0_102_3677
*1241 FILLER_0_102_37
*1242 FILLER_0_102_3741
*1243 FILLER_0_102_3747
*1244 FILLER_0_102_381
*1245 FILLER_0_102_3811
*1246 FILLER_0_102_3817
*1247 FILLER_0_102_387
*1248 FILLER_0_102_3881
*1249 FILLER_0_102_3887
*1250 FILLER_0_102_3951
*1251 FILLER_0_102_3957
*1252 FILLER_0_102_4021
*1253 FILLER_0_102_4027
*1254 FILLER_0_102_4091
*1255 FILLER_0_102_4097
*1256 FILLER_0_102_4161
*1257 FILLER_0_102_4167
*1258 FILLER_0_102_4231
*1259 FILLER_0_102_4237
*1260 FILLER_0_102_4301
*1261 FILLER_0_102_4307
*1262 FILLER_0_102_4371
*1263 FILLER_0_102_4377
*1264 FILLER_0_102_4441
*1265 FILLER_0_102_4447
*1266 FILLER_0_102_451
*1267 FILLER_0_102_4511
*1268 FILLER_0_102_4517
*1269 FILLER_0_102_457
*1270 FILLER_0_102_4581
*1271 FILLER_0_102_4587
*1272 FILLER_0_102_4651
*1273 FILLER_0_102_4657
*1274 FILLER_0_102_4721
*1275 FILLER_0_102_4727
*1276 FILLER_0_102_4791
*1277 FILLER_0_102_4797
*1278 FILLER_0_102_4861
*1279 FILLER_0_102_4867
*1280 FILLER_0_102_4931
*1281 FILLER_0_102_4937
*1282 FILLER_0_102_4969
*1283 FILLER_0_102_4973
*1284 FILLER_0_102_521
*1285 FILLER_0_102_527
*1286 FILLER_0_102_591
*1287 FILLER_0_102_597
*1288 FILLER_0_102_661
*1289 FILLER_0_102_667
*1290 FILLER_0_102_731
*1291 FILLER_0_102_737
*1292 FILLER_0_102_801
*1293 FILLER_0_102_807
*1294 FILLER_0_102_871
*1295 FILLER_0_102_877
*1296 FILLER_0_102_941
*1297 FILLER_0_102_947
*1298 FILLER_0_103_1046
*1299 FILLER_0_103_1052
*1300 FILLER_0_103_1116
*1301 FILLER_0_103_1122
*1302 FILLER_0_103_1186
*1303 FILLER_0_103_1192
*1304 FILLER_0_103_1256
*1305 FILLER_0_103_1262
*1306 FILLER_0_103_1326
*1307 FILLER_0_103_1332
*1308 FILLER_0_103_136
*1309 FILLER_0_103_1396
*1310 FILLER_0_103_1402
*1311 FILLER_0_103_142
*1312 FILLER_0_103_1466
*1313 FILLER_0_103_1472
*1314 FILLER_0_103_1536
*1315 FILLER_0_103_1542
*1316 FILLER_0_103_1606
*1317 FILLER_0_103_1612
*1318 FILLER_0_103_1676
*1319 FILLER_0_103_1682
*1320 FILLER_0_103_1746
*1321 FILLER_0_103_1752
*1322 FILLER_0_103_1816
*1323 FILLER_0_103_1822
*1324 FILLER_0_103_1886
*1325 FILLER_0_103_1892
*1326 FILLER_0_103_1956
*1327 FILLER_0_103_1962
*1328 FILLER_0_103_2
*1329 FILLER_0_103_2026
*1330 FILLER_0_103_2032
*1331 FILLER_0_103_206
*1332 FILLER_0_103_2096
*1333 FILLER_0_103_2102
*1334 FILLER_0_103_212
*1335 FILLER_0_103_2166
*1336 FILLER_0_103_2172
*1337 FILLER_0_103_2236
*1338 FILLER_0_103_2242
*1339 FILLER_0_103_2306
*1340 FILLER_0_103_2312
*1341 FILLER_0_103_2376
*1342 FILLER_0_103_2382
*1343 FILLER_0_103_2446
*1344 FILLER_0_103_2452
*1345 FILLER_0_103_2516
*1346 FILLER_0_103_2522
*1347 FILLER_0_103_2586
*1348 FILLER_0_103_2592
*1349 FILLER_0_103_2656
*1350 FILLER_0_103_2662
*1351 FILLER_0_103_2726
*1352 FILLER_0_103_2732
*1353 FILLER_0_103_276
*1354 FILLER_0_103_2796
*1355 FILLER_0_103_2802
*1356 FILLER_0_103_282
*1357 FILLER_0_103_2866
*1358 FILLER_0_103_2872
*1359 FILLER_0_103_2936
*1360 FILLER_0_103_2942
*1361 FILLER_0_103_3006
*1362 FILLER_0_103_3012
*1363 FILLER_0_103_3076
*1364 FILLER_0_103_3082
*1365 FILLER_0_103_3146
*1366 FILLER_0_103_3152
*1367 FILLER_0_103_3216
*1368 FILLER_0_103_3222
*1369 FILLER_0_103_3286
*1370 FILLER_0_103_3292
*1371 FILLER_0_103_3356
*1372 FILLER_0_103_3362
*1373 FILLER_0_103_3426
*1374 FILLER_0_103_3432
*1375 FILLER_0_103_346
*1376 FILLER_0_103_3496
*1377 FILLER_0_103_3502
*1378 FILLER_0_103_352
*1379 FILLER_0_103_3566
*1380 FILLER_0_103_3572
*1381 FILLER_0_103_3636
*1382 FILLER_0_103_3642
*1383 FILLER_0_103_3706
*1384 FILLER_0_103_3712
*1385 FILLER_0_103_3776
*1386 FILLER_0_103_3782
*1387 FILLER_0_103_3846
*1388 FILLER_0_103_3852
*1389 FILLER_0_103_3916
*1390 FILLER_0_103_3922
*1391 FILLER_0_103_3986
*1392 FILLER_0_103_3992
*1393 FILLER_0_103_4056
*1394 FILLER_0_103_4062
*1395 FILLER_0_103_4126
*1396 FILLER_0_103_4132
*1397 FILLER_0_103_416
*1398 FILLER_0_103_4196
*1399 FILLER_0_103_4202
*1400 FILLER_0_103_422
*1401 FILLER_0_103_4266
*1402 FILLER_0_103_4272
*1403 FILLER_0_103_4336
*1404 FILLER_0_103_4342
*1405 FILLER_0_103_4406
*1406 FILLER_0_103_4412
*1407 FILLER_0_103_4476
*1408 FILLER_0_103_4482
*1409 FILLER_0_103_4546
*1410 FILLER_0_103_4552
*1411 FILLER_0_103_4616
*1412 FILLER_0_103_4622
*1413 FILLER_0_103_4686
*1414 FILLER_0_103_4692
*1415 FILLER_0_103_4756
*1416 FILLER_0_103_4762
*1417 FILLER_0_103_4826
*1418 FILLER_0_103_4832
*1419 FILLER_0_103_486
*1420 FILLER_0_103_4896
*1421 FILLER_0_103_4902
*1422 FILLER_0_103_492
*1423 FILLER_0_103_4966
*1424 FILLER_0_103_4972
*1425 FILLER_0_103_556
*1426 FILLER_0_103_562
*1427 FILLER_0_103_626
*1428 FILLER_0_103_632
*1429 FILLER_0_103_66
*1430 FILLER_0_103_696
*1431 FILLER_0_103_702
*1432 FILLER_0_103_72
*1433 FILLER_0_103_766
*1434 FILLER_0_103_772
*1435 FILLER_0_103_836
*1436 FILLER_0_103_842
*1437 FILLER_0_103_906
*1438 FILLER_0_103_912
*1439 FILLER_0_103_976
*1440 FILLER_0_103_982
*1441 FILLER_0_104_101
*1442 FILLER_0_104_1011
*1443 FILLER_0_104_1017
*1444 FILLER_0_104_107
*1445 FILLER_0_104_1081
*1446 FILLER_0_104_1087
*1447 FILLER_0_104_1151
*1448 FILLER_0_104_1157
*1449 FILLER_0_104_1221
*1450 FILLER_0_104_1227
*1451 FILLER_0_104_1291
*1452 FILLER_0_104_1297
*1453 FILLER_0_104_1361
*1454 FILLER_0_104_1367
*1455 FILLER_0_104_1431
*1456 FILLER_0_104_1437
*1457 FILLER_0_104_1501
*1458 FILLER_0_104_1507
*1459 FILLER_0_104_1571
*1460 FILLER_0_104_1577
*1461 FILLER_0_104_1641
*1462 FILLER_0_104_1647
*1463 FILLER_0_104_171
*1464 FILLER_0_104_1711
*1465 FILLER_0_104_1717
*1466 FILLER_0_104_177
*1467 FILLER_0_104_1781
*1468 FILLER_0_104_1787
*1469 FILLER_0_104_1851
*1470 FILLER_0_104_1857
*1471 FILLER_0_104_1921
*1472 FILLER_0_104_1927
*1473 FILLER_0_104_1991
*1474 FILLER_0_104_1997
*1475 FILLER_0_104_2
*1476 FILLER_0_104_2061
*1477 FILLER_0_104_2067
*1478 FILLER_0_104_2131
*1479 FILLER_0_104_2137
*1480 FILLER_0_104_2201
*1481 FILLER_0_104_2207
*1482 FILLER_0_104_2271
*1483 FILLER_0_104_2277
*1484 FILLER_0_104_2341
*1485 FILLER_0_104_2347