*SPEF "ieee 1481-1999"
*DESIGN "user_project_wrapper"
*DATE "11:11:11 Fri 11 11, 1111"
*VENDOR "OpenRCX"
*PROGRAM "Parallel Extraction"
*VERSION "1.0"
*DESIGN_FLOW "NAME_SCOPE LOCAL" "PIN_CAP NONE"
*DIVIDER /
*DELIMITER :
*BUS_DELIMITER []
*T_UNIT 1 NS
*C_UNIT 1 PF
*R_UNIT 1 OHM
*L_UNIT 1 HENRY

*NAME_MAP
*1 io_in[0]
*2 io_in[10]
*3 io_in[11]
*4 io_in[12]
*5 io_in[13]
*6 io_in[14]
*7 io_in[15]
*8 io_in[16]
*9 io_in[17]
*10 io_in[18]
*11 io_in[19]
*12 io_in[1]
*13 io_in[20]
*14 io_in[21]
*15 io_in[22]
*16 io_in[23]
*17 io_in[24]
*18 io_in[25]
*19 io_in[26]
*20 io_in[27]
*21 io_in[28]
*22 io_in[29]
*23 io_in[2]
*24 io_in[30]
*25 io_in[31]
*26 io_in[32]
*27 io_in[33]
*28 io_in[34]
*29 io_in[35]
*30 io_in[36]
*31 io_in[37]
*32 io_in[3]
*33 io_in[4]
*34 io_in[5]
*35 io_in[6]
*36 io_in[7]
*37 io_in[8]
*38 io_in[9]
*39 io_oeb[0]
*40 io_oeb[10]
*41 io_oeb[11]
*42 io_oeb[12]
*43 io_oeb[13]
*44 io_oeb[14]
*45 io_oeb[15]
*46 io_oeb[16]
*47 io_oeb[17]
*48 io_oeb[18]
*49 io_oeb[19]
*50 io_oeb[1]
*51 io_oeb[20]
*52 io_oeb[21]
*53 io_oeb[22]
*54 io_oeb[23]
*55 io_oeb[24]
*56 io_oeb[25]
*57 io_oeb[26]
*58 io_oeb[27]
*59 io_oeb[28]
*60 io_oeb[29]
*61 io_oeb[2]
*62 io_oeb[30]
*63 io_oeb[31]
*64 io_oeb[32]
*65 io_oeb[33]
*66 io_oeb[34]
*67 io_oeb[35]
*68 io_oeb[36]
*69 io_oeb[37]
*70 io_oeb[3]
*71 io_oeb[4]
*72 io_oeb[5]
*73 io_oeb[6]
*74 io_oeb[7]
*75 io_oeb[8]
*76 io_oeb[9]
*77 io_out[0]
*78 io_out[10]
*79 io_out[11]
*80 io_out[12]
*81 io_out[13]
*82 io_out[14]
*83 io_out[15]
*84 io_out[16]
*85 io_out[17]
*86 io_out[18]
*87 io_out[19]
*88 io_out[1]
*89 io_out[20]
*90 io_out[21]
*91 io_out[22]
*92 io_out[23]
*93 io_out[24]
*94 io_out[25]
*95 io_out[26]
*96 io_out[27]
*97 io_out[28]
*98 io_out[29]
*99 io_out[2]
*100 io_out[30]
*101 io_out[31]
*102 io_out[32]
*103 io_out[33]
*104 io_out[34]
*105 io_out[35]
*106 io_out[36]
*107 io_out[37]
*108 io_out[3]
*109 io_out[4]
*110 io_out[5]
*111 io_out[6]
*112 io_out[7]
*113 io_out[8]
*114 io_out[9]
*115 la_data_in[0]
*116 la_data_in[10]
*117 la_data_in[11]
*118 la_data_in[12]
*119 la_data_in[13]
*120 la_data_in[14]
*121 la_data_in[15]
*122 la_data_in[16]
*123 la_data_in[17]
*124 la_data_in[18]
*125 la_data_in[19]
*126 la_data_in[1]
*127 la_data_in[20]
*128 la_data_in[21]
*129 la_data_in[22]
*130 la_data_in[23]
*131 la_data_in[24]
*132 la_data_in[25]
*133 la_data_in[26]
*134 la_data_in[27]
*135 la_data_in[28]
*136 la_data_in[29]
*137 la_data_in[2]
*138 la_data_in[30]
*139 la_data_in[31]
*140 la_data_in[32]
*141 la_data_in[33]
*142 la_data_in[34]
*143 la_data_in[35]
*144 la_data_in[36]
*145 la_data_in[37]
*146 la_data_in[38]
*147 la_data_in[39]
*148 la_data_in[3]
*149 la_data_in[40]
*150 la_data_in[41]
*151 la_data_in[42]
*152 la_data_in[43]
*153 la_data_in[44]
*154 la_data_in[45]
*155 la_data_in[46]
*156 la_data_in[47]
*157 la_data_in[48]
*158 la_data_in[49]
*159 la_data_in[4]
*160 la_data_in[50]
*161 la_data_in[51]
*162 la_data_in[52]
*163 la_data_in[53]
*164 la_data_in[54]
*165 la_data_in[55]
*166 la_data_in[56]
*167 la_data_in[57]
*168 la_data_in[58]
*169 la_data_in[59]
*170 la_data_in[5]
*171 la_data_in[60]
*172 la_data_in[61]
*173 la_data_in[62]
*174 la_data_in[63]
*175 la_data_in[6]
*176 la_data_in[7]
*177 la_data_in[8]
*178 la_data_in[9]
*179 la_data_out[0]
*180 la_data_out[10]
*181 la_data_out[11]
*182 la_data_out[12]
*183 la_data_out[13]
*184 la_data_out[14]
*185 la_data_out[15]
*186 la_data_out[16]
*187 la_data_out[17]
*188 la_data_out[18]
*189 la_data_out[19]
*190 la_data_out[1]
*191 la_data_out[20]
*192 la_data_out[21]
*193 la_data_out[22]
*194 la_data_out[23]
*195 la_data_out[24]
*196 la_data_out[25]
*197 la_data_out[26]
*198 la_data_out[27]
*199 la_data_out[28]
*200 la_data_out[29]
*201 la_data_out[2]
*202 la_data_out[30]
*203 la_data_out[31]
*204 la_data_out[32]
*205 la_data_out[33]
*206 la_data_out[34]
*207 la_data_out[35]
*208 la_data_out[36]
*209 la_data_out[37]
*210 la_data_out[38]
*211 la_data_out[39]
*212 la_data_out[3]
*213 la_data_out[40]
*214 la_data_out[41]
*215 la_data_out[42]
*216 la_data_out[43]
*217 la_data_out[44]
*218 la_data_out[45]
*219 la_data_out[46]
*220 la_data_out[47]
*221 la_data_out[48]
*222 la_data_out[49]
*223 la_data_out[4]
*224 la_data_out[50]
*225 la_data_out[51]
*226 la_data_out[52]
*227 la_data_out[53]
*228 la_data_out[54]
*229 la_data_out[55]
*230 la_data_out[56]
*231 la_data_out[57]
*232 la_data_out[58]
*233 la_data_out[59]
*234 la_data_out[5]
*235 la_data_out[60]
*236 la_data_out[61]
*237 la_data_out[62]
*238 la_data_out[63]
*239 la_data_out[6]
*240 la_data_out[7]
*241 la_data_out[8]
*242 la_data_out[9]
*243 la_oenb[0]
*244 la_oenb[10]
*245 la_oenb[11]
*246 la_oenb[12]
*247 la_oenb[13]
*248 la_oenb[14]
*249 la_oenb[15]
*250 la_oenb[16]
*251 la_oenb[17]
*252 la_oenb[18]
*253 la_oenb[19]
*254 la_oenb[1]
*255 la_oenb[20]
*256 la_oenb[21]
*257 la_oenb[22]
*258 la_oenb[23]
*259 la_oenb[24]
*260 la_oenb[25]
*261 la_oenb[26]
*262 la_oenb[27]
*263 la_oenb[28]
*264 la_oenb[29]
*265 la_oenb[2]
*266 la_oenb[30]
*267 la_oenb[31]
*268 la_oenb[32]
*269 la_oenb[33]
*270 la_oenb[34]
*271 la_oenb[35]
*272 la_oenb[36]
*273 la_oenb[37]
*274 la_oenb[38]
*275 la_oenb[39]
*276 la_oenb[3]
*277 la_oenb[40]
*278 la_oenb[41]
*279 la_oenb[42]
*280 la_oenb[43]
*281 la_oenb[44]
*282 la_oenb[45]
*283 la_oenb[46]
*284 la_oenb[47]
*285 la_oenb[48]
*286 la_oenb[49]
*287 la_oenb[4]
*288 la_oenb[50]
*289 la_oenb[51]
*290 la_oenb[52]
*291 la_oenb[53]
*292 la_oenb[54]
*293 la_oenb[55]
*294 la_oenb[56]
*295 la_oenb[57]
*296 la_oenb[58]
*297 la_oenb[59]
*298 la_oenb[5]
*299 la_oenb[60]
*300 la_oenb[61]
*301 la_oenb[62]
*302 la_oenb[63]
*303 la_oenb[6]
*304 la_oenb[7]
*305 la_oenb[8]
*306 la_oenb[9]
*307 user_clock2
*308 user_irq[0]
*309 user_irq[1]
*310 user_irq[2]
*313 wb_clk_i
*314 wb_rst_i
*315 wbs_ack_o
*316 wbs_adr_i[0]
*317 wbs_adr_i[10]
*318 wbs_adr_i[11]
*319 wbs_adr_i[12]
*320 wbs_adr_i[13]
*321 wbs_adr_i[14]
*322 wbs_adr_i[15]
*323 wbs_adr_i[16]
*324 wbs_adr_i[17]
*325 wbs_adr_i[18]
*326 wbs_adr_i[19]
*327 wbs_adr_i[1]
*328 wbs_adr_i[20]
*329 wbs_adr_i[21]
*330 wbs_adr_i[22]
*331 wbs_adr_i[23]
*332 wbs_adr_i[24]
*333 wbs_adr_i[25]
*334 wbs_adr_i[26]
*335 wbs_adr_i[27]
*336 wbs_adr_i[28]
*337 wbs_adr_i[29]
*338 wbs_adr_i[2]
*339 wbs_adr_i[30]
*340 wbs_adr_i[31]
*341 wbs_adr_i[3]
*342 wbs_adr_i[4]
*343 wbs_adr_i[5]
*344 wbs_adr_i[6]
*345 wbs_adr_i[7]
*346 wbs_adr_i[8]
*347 wbs_adr_i[9]
*348 wbs_cyc_i
*349 wbs_dat_i[0]
*350 wbs_dat_i[10]
*351 wbs_dat_i[11]
*352 wbs_dat_i[12]
*353 wbs_dat_i[13]
*354 wbs_dat_i[14]
*355 wbs_dat_i[15]
*356 wbs_dat_i[16]
*357 wbs_dat_i[17]
*358 wbs_dat_i[18]
*359 wbs_dat_i[19]
*360 wbs_dat_i[1]
*361 wbs_dat_i[20]
*362 wbs_dat_i[21]
*363 wbs_dat_i[22]
*364 wbs_dat_i[23]
*365 wbs_dat_i[24]
*366 wbs_dat_i[25]
*367 wbs_dat_i[26]
*368 wbs_dat_i[27]
*369 wbs_dat_i[28]
*370 wbs_dat_i[29]
*371 wbs_dat_i[2]
*372 wbs_dat_i[30]
*373 wbs_dat_i[31]
*374 wbs_dat_i[3]
*375 wbs_dat_i[4]
*376 wbs_dat_i[5]
*377 wbs_dat_i[6]
*378 wbs_dat_i[7]
*379 wbs_dat_i[8]
*380 wbs_dat_i[9]
*381 wbs_dat_o[0]
*382 wbs_dat_o[10]
*383 wbs_dat_o[11]
*384 wbs_dat_o[12]
*385 wbs_dat_o[13]
*386 wbs_dat_o[14]
*387 wbs_dat_o[15]
*388 wbs_dat_o[16]
*389 wbs_dat_o[17]
*390 wbs_dat_o[18]
*391 wbs_dat_o[19]
*392 wbs_dat_o[1]
*393 wbs_dat_o[20]
*394 wbs_dat_o[21]
*395 wbs_dat_o[22]
*396 wbs_dat_o[23]
*397 wbs_dat_o[24]
*398 wbs_dat_o[25]
*399 wbs_dat_o[26]
*400 wbs_dat_o[27]
*401 wbs_dat_o[28]
*402 wbs_dat_o[29]
*403 wbs_dat_o[2]
*404 wbs_dat_o[30]
*405 wbs_dat_o[31]
*406 wbs_dat_o[3]
*407 wbs_dat_o[4]
*408 wbs_dat_o[5]
*409 wbs_dat_o[6]
*410 wbs_dat_o[7]
*411 wbs_dat_o[8]
*412 wbs_dat_o[9]
*413 wbs_sel_i[0]
*414 wbs_sel_i[1]
*415 wbs_sel_i[2]
*416 wbs_sel_i[3]
*417 wbs_stb_i
*418 wbs_we_i
*419 pwmaudio

*PORTS
io_in[0] I
io_in[10] I
io_in[11] I
io_in[12] I
io_in[13] I
io_in[14] I
io_in[15] I
io_in[16] I
io_in[17] I
io_in[18] I
io_in[19] I
io_in[1] I
io_in[20] I
io_in[21] I
io_in[22] I
io_in[23] I
io_in[24] I
io_in[25] I
io_in[26] I
io_in[27] I
io_in[28] I
io_in[29] I
io_in[2] I
io_in[30] I
io_in[31] I
io_in[32] I
io_in[33] I
io_in[34] I
io_in[35] I
io_in[36] I
io_in[37] I
io_in[3] I
io_in[4] I
io_in[5] I
io_in[6] I
io_in[7] I
io_in[8] I
io_in[9] I
io_oeb[0] O
io_oeb[10] O
io_oeb[11] O
io_oeb[12] O
io_oeb[13] O
io_oeb[14] O
io_oeb[15] O
io_oeb[16] O
io_oeb[17] O
io_oeb[18] O
io_oeb[19] O
io_oeb[1] O
io_oeb[20] O
io_oeb[21] O
io_oeb[22] O
io_oeb[23] O
io_oeb[24] O
io_oeb[25] O
io_oeb[26] O
io_oeb[27] O
io_oeb[28] O
io_oeb[29] O
io_oeb[2] O
io_oeb[30] O
io_oeb[31] O
io_oeb[32] O
io_oeb[33] O
io_oeb[34] O
io_oeb[35] O
io_oeb[36] O
io_oeb[37] O
io_oeb[3] O
io_oeb[4] O
io_oeb[5] O
io_oeb[6] O
io_oeb[7] O
io_oeb[8] O
io_oeb[9] O
io_out[0] O
io_out[10] O
io_out[11] O
io_out[12] O
io_out[13] O
io_out[14] O
io_out[15] O
io_out[16] O
io_out[17] O
io_out[18] O
io_out[19] O
io_out[1] O
io_out[20] O
io_out[21] O
io_out[22] O
io_out[23] O
io_out[24] O
io_out[25] O
io_out[26] O
io_out[27] O
io_out[28] O
io_out[29] O
io_out[2] O
io_out[30] O
io_out[31] O
io_out[32] O
io_out[33] O
io_out[34] O
io_out[35] O
io_out[36] O
io_out[37] O
io_out[3] O
io_out[4] O
io_out[5] O
io_out[6] O
io_out[7] O
io_out[8] O
io_out[9] O
la_data_in[0] I
la_data_in[10] I
la_data_in[11] I
la_data_in[12] I
la_data_in[13] I
la_data_in[14] I
la_data_in[15] I
la_data_in[16] I
la_data_in[17] I
la_data_in[18] I
la_data_in[19] I
la_data_in[1] I
la_data_in[20] I
la_data_in[21] I
la_data_in[22] I
la_data_in[23] I
la_data_in[24] I
la_data_in[25] I
la_data_in[26] I
la_data_in[27] I
la_data_in[28] I
la_data_in[29] I
la_data_in[2] I
la_data_in[30] I
la_data_in[31] I
la_data_in[32] I
la_data_in[33] I
la_data_in[34] I
la_data_in[35] I
la_data_in[36] I
la_data_in[37] I
la_data_in[38] I
la_data_in[39] I
la_data_in[3] I
la_data_in[40] I
la_data_in[41] I
la_data_in[42] I
la_data_in[43] I
la_data_in[44] I
la_data_in[45] I
la_data_in[46] I
la_data_in[47] I
la_data_in[48] I
la_data_in[49] I
la_data_in[4] I
la_data_in[50] I
la_data_in[51] I
la_data_in[52] I
la_data_in[53] I
la_data_in[54] I
la_data_in[55] I
la_data_in[56] I
la_data_in[57] I
la_data_in[58] I
la_data_in[59] I
la_data_in[5] I
la_data_in[60] I
la_data_in[61] I
la_data_in[62] I
la_data_in[63] I
la_data_in[6] I
la_data_in[7] I
la_data_in[8] I
la_data_in[9] I
la_data_out[0] O
la_data_out[10] O
la_data_out[11] O
la_data_out[12] O
la_data_out[13] O
la_data_out[14] O
la_data_out[15] O
la_data_out[16] O
la_data_out[17] O
la_data_out[18] O
la_data_out[19] O
la_data_out[1] O
la_data_out[20] O
la_data_out[21] O
la_data_out[22] O
la_data_out[23] O
la_data_out[24] O
la_data_out[25] O
la_data_out[26] O
la_data_out[27] O
la_data_out[28] O
la_data_out[29] O
la_data_out[2] O
la_data_out[30] O
la_data_out[31] O
la_data_out[32] O
la_data_out[33] O
la_data_out[34] O
la_data_out[35] O
la_data_out[36] O
la_data_out[37] O
la_data_out[38] O
la_data_out[39] O
la_data_out[3] O
la_data_out[40] O
la_data_out[41] O
la_data_out[42] O
la_data_out[43] O
la_data_out[44] O
la_data_out[45] O
la_data_out[46] O
la_data_out[47] O
la_data_out[48] O
la_data_out[49] O
la_data_out[4] O
la_data_out[50] O
la_data_out[51] O
la_data_out[52] O
la_data_out[53] O
la_data_out[54] O
la_data_out[55] O
la_data_out[56] O
la_data_out[57] O
la_data_out[58] O
la_data_out[59] O
la_data_out[5] O
la_data_out[60] O
la_data_out[61] O
la_data_out[62] O
la_data_out[63] O
la_data_out[6] O
la_data_out[7] O
la_data_out[8] O
la_data_out[9] O
la_oenb[0] I
la_oenb[10] I
la_oenb[11] I
la_oenb[12] I
la_oenb[13] I
la_oenb[14] I
la_oenb[15] I
la_oenb[16] I
la_oenb[17] I
la_oenb[18] I
la_oenb[19] I
la_oenb[1] I
la_oenb[20] I
la_oenb[21] I
la_oenb[22] I
la_oenb[23] I
la_oenb[24] I
la_oenb[25] I
la_oenb[26] I
la_oenb[27] I
la_oenb[28] I
la_oenb[29] I
la_oenb[2] I
la_oenb[30] I
la_oenb[31] I
la_oenb[32] I
la_oenb[33] I
la_oenb[34] I
la_oenb[35] I
la_oenb[36] I
la_oenb[37] I
la_oenb[38] I
la_oenb[39] I
la_oenb[3] I
la_oenb[40] I
la_oenb[41] I
la_oenb[42] I
la_oenb[43] I
la_oenb[44] I
la_oenb[45] I
la_oenb[46] I
la_oenb[47] I
la_oenb[48] I
la_oenb[49] I
la_oenb[4] I
la_oenb[50] I
la_oenb[51] I
la_oenb[52] I
la_oenb[53] I
la_oenb[54] I
la_oenb[55] I
la_oenb[56] I
la_oenb[57] I
la_oenb[58] I
la_oenb[59] I
la_oenb[5] I
la_oenb[60] I
la_oenb[61] I
la_oenb[62] I
la_oenb[63] I
la_oenb[6] I
la_oenb[7] I
la_oenb[8] I
la_oenb[9] I
user_clock2 I
user_irq[0] O
user_irq[1] O
user_irq[2] O
wb_clk_i I
wb_rst_i I
wbs_ack_o O
wbs_adr_i[0] I
wbs_adr_i[10] I
wbs_adr_i[11] I
wbs_adr_i[12] I
wbs_adr_i[13] I
wbs_adr_i[14] I
wbs_adr_i[15] I
wbs_adr_i[16] I
wbs_adr_i[17] I
wbs_adr_i[18] I
wbs_adr_i[19] I
wbs_adr_i[1] I
wbs_adr_i[20] I
wbs_adr_i[21] I
wbs_adr_i[22] I
wbs_adr_i[23] I
wbs_adr_i[24] I
wbs_adr_i[25] I
wbs_adr_i[26] I
wbs_adr_i[27] I
wbs_adr_i[28] I
wbs_adr_i[29] I
wbs_adr_i[2] I
wbs_adr_i[30] I
wbs_adr_i[31] I
wbs_adr_i[3] I
wbs_adr_i[4] I
wbs_adr_i[5] I
wbs_adr_i[6] I
wbs_adr_i[7] I
wbs_adr_i[8] I
wbs_adr_i[9] I
wbs_cyc_i I
wbs_dat_i[0] I
wbs_dat_i[10] I
wbs_dat_i[11] I
wbs_dat_i[12] I
wbs_dat_i[13] I
wbs_dat_i[14] I
wbs_dat_i[15] I
wbs_dat_i[16] I
wbs_dat_i[17] I
wbs_dat_i[18] I
wbs_dat_i[19] I
wbs_dat_i[1] I
wbs_dat_i[20] I
wbs_dat_i[21] I
wbs_dat_i[22] I
wbs_dat_i[23] I
wbs_dat_i[24] I
wbs_dat_i[25] I
wbs_dat_i[26] I
wbs_dat_i[27] I
wbs_dat_i[28] I
wbs_dat_i[29] I
wbs_dat_i[2] I
wbs_dat_i[30] I
wbs_dat_i[31] I
wbs_dat_i[3] I
wbs_dat_i[4] I
wbs_dat_i[5] I
wbs_dat_i[6] I
wbs_dat_i[7] I
wbs_dat_i[8] I
wbs_dat_i[9] I
wbs_dat_o[0] O
wbs_dat_o[10] O
wbs_dat_o[11] O
wbs_dat_o[12] O
wbs_dat_o[13] O
wbs_dat_o[14] O
wbs_dat_o[15] O
wbs_dat_o[16] O
wbs_dat_o[17] O
wbs_dat_o[18] O
wbs_dat_o[19] O
wbs_dat_o[1] O
wbs_dat_o[20] O
wbs_dat_o[21] O
wbs_dat_o[22] O
wbs_dat_o[23] O
wbs_dat_o[24] O
wbs_dat_o[25] O
wbs_dat_o[26] O
wbs_dat_o[27] O
wbs_dat_o[28] O
wbs_dat_o[29] O
wbs_dat_o[2] O
wbs_dat_o[30] O
wbs_dat_o[31] O
wbs_dat_o[3] O
wbs_dat_o[4] O
wbs_dat_o[5] O
wbs_dat_o[6] O
wbs_dat_o[7] O
wbs_dat_o[8] O
wbs_dat_o[9] O
wbs_sel_i[0] I
wbs_sel_i[1] I
wbs_sel_i[2] I
wbs_sel_i[3] I
wbs_stb_i I
wbs_we_i I

*D_NET *9 0.324864
*CONN
*P io_in[17] I
*I *419:io_adsr_choice[0] I *D PWMaudio
*CAP
1 io_in[17] 0.00113656
2 *419:io_adsr_choice[0] 0.0688581
3 *9:11 0.0688581
4 *9:9 0.0259385
5 *9:7 0.027075
6 *419:io_adsr_choice[0] io_oeb[19] 0
7 *419:io_adsr_choice[0] *419:io_adsr_choice[1] 0.0164966
8 *419:io_adsr_choice[0] *419:io_adsr_choice[2] 0.000146554
9 *419:io_adsr_choice[0] *49:18 0.0359479
10 *9:9 io_oeb[17] 0
11 *9:9 io_oeb[19] 6.67169e-05
12 *9:9 *10:9 0.0803401
*RES
1 io_in[17] *9:7 14.12 
2 *9:7 *9:9 326.04 
3 *9:9 *9:11 4.5 
4 *9:11 *419:io_adsr_choice[0] 645.684 
*END

*D_NET *10 0.278802
*CONN
*P io_in[18] I
*I *419:io_adsr_choice[1] I *D PWMaudio
*CAP
1 io_in[18] 0.00111232
2 *419:io_adsr_choice[1] 0.0689678
3 *10:11 0.0689678
4 *10:9 0.0118715
5 *10:7 0.0129838
6 *419:io_adsr_choice[1] *49:18 0.0180618
7 *419:io_adsr_choice[0] *419:io_adsr_choice[1] 0.0164966
8 *9:9 *10:9 0.0803401
*RES
1 io_in[18] *10:7 13.912 
2 *10:7 *10:9 201.864 
3 *10:9 *10:11 4.5 
4 *10:11 *419:io_adsr_choice[1] 645.892 
*END

*D_NET *11 0.210512
*CONN
*P io_in[19] I
*I *419:io_adsr_choice[2] I *D PWMaudio
*CAP
1 io_in[19] 0.0767785
2 *419:io_adsr_choice[2] 0.000777018
3 *11:9 0.00269491
4 *11:7 0.00191789
5 *11:5 0.0767785
6 *11:9 *52:9 0.0223224
7 *11:9 *55:9 0.0268208
8 *11:9 *62:9 0.00227599
9 *419:io_adsr_choice[0] *419:io_adsr_choice[2] 0.000146554
*RES
1 io_in[19] *11:5 648.804 
2 *11:5 *11:7 4.5 
3 *11:7 *11:9 81.432 
4 *11:9 *419:io_adsr_choice[2] 11 
*END

*D_NET *13 0.304614
*CONN
*P io_in[20] I
*I *419:io_trigger I *D PWMaudio
*CAP
1 io_in[20] 0.00193792
2 *419:io_trigger 0.0016442
3 *13:19 0.00201917
4 *13:15 0.00037497
5 *13:13 0.122251
6 *13:11 0.124189
7 *419:io_trigger *14:17 0.00962996
8 *419:io_trigger *15:17 0.00218231
9 *419:io_trigger *19:13 0.000951689
10 *419:io_trigger *57:6 0.00010585
11 *13:11 *51:18 0.00536847
12 *13:19 *14:17 0.00977654
13 *13:19 *19:13 0.000106026
14 *13:19 *20:13 0.0181872
15 *13:19 *30:13 0.00381806
16 *13:19 *56:12 0.00207059
*RES
1 io_in[20] *13:11 31.62 
2 *13:11 *13:13 1091.69 
3 *13:13 *13:15 4.5 
4 *13:15 *13:19 47.008 
5 *13:19 *419:io_trigger 47.244 
*END

*D_NET *14 0.398382
*CONN
*P io_in[21] I
*I *419:io_loop I *D PWMaudio
*CAP
1 io_in[21] 0.00111232
2 *419:io_loop 0
3 *14:17 0.000840361
4 *14:15 0.000840361
5 *14:13 0.122104
6 *14:11 0.122104
7 *14:9 0.00293127
8 *14:7 0.00404359
9 *14:9 *51:18 0.0467691
10 *14:9 *53:14 0.0618119
11 *14:17 *30:13 0.00929403
12 *14:17 *31:13 0.000355571
13 *14:17 *56:12 0.00203115
14 *14:17 *57:6 0.00473742
15 *419:io_trigger *14:17 0.00962996
16 *13:19 *14:17 0.00977654
*RES
1 io_in[21] *14:7 13.912 
2 *14:7 *14:9 158.392 
3 *14:9 *14:11 4.5 
4 *14:11 *14:13 1091.06 
5 *14:13 *14:15 4.5 
6 *14:15 *14:17 65.832 
7 *14:17 *419:io_loop 4.5 
*END

*D_NET *15 0.505924
*CONN
*P io_in[22] I
*I *419:io_adsr_switch I *D PWMaudio
*CAP
1 io_in[22] 0.00139555
2 *419:io_adsr_switch 0.000139375
3 *15:17 0.00232072
4 *15:15 0.00218135
5 *15:13 0.122191
6 *15:11 0.123586
7 *15:11 *53:14 0.000215214
8 *15:17 *19:13 0.00101185
9 *15:17 *21:13 0.122497
10 *15:17 *24:13 0.119568
11 *15:17 *56:12 0.00863582
12 *15:17 *63:9 0
13 *419:io_trigger *15:17 0.00218231
*RES
1 io_in[22] *15:11 21.22 
2 *15:11 *15:13 1091.27 
3 *15:13 *15:15 4.5 
4 *15:15 *15:17 325.208 
5 *15:17 *419:io_adsr_switch 5.384 
*END

*D_NET *16 0.431402
*CONN
*P io_in[23] I
*I *419:io_note_length[0] I *D PWMaudio
*CAP
1 io_in[23] 0.0767377
2 *419:io_note_length[0] 0.000844659
3 *16:9 0.0110315
4 *16:7 0.0101868
5 *16:5 0.0767377
6 *16:9 *52:9 0.0952878
7 *16:9 *55:9 0.160576
*RES
1 io_in[23] *16:5 648.804 
2 *16:5 *16:7 4.5 
3 *16:7 *16:9 403 
4 *16:9 *419:io_note_length[0] 11 
*END

*D_NET *17 0.357553
*CONN
*P io_in[24] I
*I *419:io_note_length[1] I *D PWMaudio
*CAP
1 io_in[24] 0.00162042
2 *419:io_note_length[1] 0.00110393
3 *17:13 0.0592145
4 *17:11 0.0581105
5 *17:9 0.056053
6 *17:7 0.0576734
7 *419:io_note_length[1] *41:5 0.000209503
8 *17:9 *21:9 0.123354
9 *17:9 *26:9 0.000203548
10 *17:13 *26:7 9.96173e-06
*RES
1 io_in[24] *17:7 18.072 
2 *17:7 *17:9 630.344 
3 *17:9 *17:11 4.5 
4 *17:11 *17:13 508.664 
5 *17:13 *419:io_note_length[1] 13.704 
*END

*D_NET *18 0.28648
*CONN
*P io_in[25] I
*I *419:io_note_length[2] I *D PWMaudio
*CAP
1 io_in[25] 0.00287594
2 *419:io_note_length[2] 0.00525657
3 *18:13 0.0627786
4 *18:11 0.057522
5 *18:9 0.0429792
6 *18:7 0.0458552
7 *18:9 *20:9 0.0513712
8 *18:9 *25:9 0.0178414
*RES
1 io_in[25] *18:7 27.64 
2 *18:7 *18:9 517.4 
3 *18:9 *18:11 4.5 
4 *18:11 *18:13 504.088 
5 *18:13 *419:io_note_length[2] 48.024 
*END

*D_NET *19 0.837556
*CONN
*P io_in[26] I
*I *419:io_frequency[0] I *D PWMaudio
*CAP
1 io_in[26] 0.00321299
2 *419:io_frequency[0] 8.85466e-05
3 *19:13 0.00154608
4 *19:11 0.00145753
5 *19:9 0.0693876
6 *19:7 0.0726005
7 *419:io_frequency[0] *419:io_frequency[2] 4.83409e-06
8 *19:9 *22:9 0.269556
9 *19:9 *31:9 9.00155e-05
10 *19:13 *20:13 0.200942
11 *19:13 *24:13 0.199808
12 *19:13 *56:12 0.0167925
13 *419:io_trigger *19:13 0.000951689
14 *13:19 *19:13 0.000106026
15 *15:17 *19:13 0.00101185
*RES
1 io_in[26] *19:7 30.344 
2 *19:7 *19:9 927.992 
3 *19:9 *19:11 4.5 
4 *19:11 *19:13 507.624 
5 *19:13 *419:io_frequency[0] 4.968 
*END

*D_NET *20 0.679635
*CONN
*P io_in[27] I
*I *419:io_frequency[1] I *D PWMaudio
*CAP
1 io_in[27] 0.00350107
2 *419:io_frequency[1] 0.000201283
3 *20:13 0.00733987
4 *20:11 0.00713859
5 *20:9 0.0537988
6 *20:7 0.0572999
7 *20:9 *25:9 0.207838
8 *20:13 *24:13 0.0005469
9 *20:13 *30:13 0.0533732
10 *20:13 *56:12 0.0180967
11 *13:19 *20:13 0.0181872
12 *18:9 *20:9 0.0513712
13 *19:13 *20:13 0.200942
*RES
1 io_in[27] *20:7 27.224 
2 *20:7 *20:9 849.16 
3 *20:9 *20:11 4.5 
4 *20:11 *20:13 507.416 
5 *20:13 *419:io_frequency[1] 5.696 
*END

*D_NET *21 0.755597
*CONN
*P io_in[28] I
*I *419:io_frequency[2] I *D PWMaudio
*CAP
1 io_in[28] 0.00204012
2 *419:io_frequency[2] 0.0001893
3 *21:13 0.00326666
4 *21:11 0.00307736
5 *21:9 0.046919
6 *21:7 0.0489591
7 *419:io_frequency[2] *419:clk 0
8 *21:9 *26:9 0.00450421
9 *21:9 *27:9 0.145177
10 *21:9 *64:12 0.0158733
11 *21:13 *24:13 0.035745
12 *21:13 *26:13 0.203991
13 *21:13 *57:6 0
14 *21:13 *63:9 0
15 *419:io_frequency[0] *419:io_frequency[2] 4.83409e-06
16 *15:17 *21:13 0.122497
17 *17:9 *21:9 0.123354
*RES
1 io_in[28] *21:7 17.864 
2 *21:7 *21:9 771.368 
3 *21:9 *21:11 4.5 
4 *21:11 *21:13 521.352 
5 *21:13 *419:io_frequency[2] 5.592 
*END

*D_NET *22 0.590414
*CONN
*P io_in[29] I
*I *419:io_frequency[3] I *D PWMaudio
*CAP
1 io_in[29] 0.00336575
2 *419:io_frequency[3] 0.00051449
3 *22:13 0.0139187
4 *22:11 0.0134042
5 *22:9 0.0188442
6 *22:7 0.0222099
7 *419:io_frequency[3] *419:io_frequency[5] 0.00318944
8 *419:io_frequency[3] *419:io_frequency[8] 0.00037585
9 *419:io_frequency[3] *51:12 0
10 *419:io_frequency[3] *53:8 0.00311891
11 *419:io_frequency[3] *57:6 0.0131745
12 *22:9 *28:9 0.0385458
13 *22:9 *31:9 0.0239423
14 *22:9 *65:10 0.0468188
15 *22:13 *419:io_frequency[5] 4.17612e-05
16 *22:13 *25:13 0.0385946
17 *22:13 *57:6 0.0807988
18 *19:9 *22:9 0.269556
*RES
1 io_in[29] *22:7 30.552 
2 *22:7 *22:9 690.456 
3 *22:9 *22:11 4.5 
4 *22:11 *22:13 469.456 
5 *22:13 *419:io_frequency[3] 37.884 
*END

*D_NET *24 0.701642
*CONN
*P io_in[30] I
*I *419:io_frequency[4] I *D PWMaudio
*CAP
1 io_in[30] 0.00266681
2 *419:io_frequency[4] 0.00014278
3 *24:13 0.00222073
4 *24:11 0.00207795
5 *24:9 0.0298721
6 *24:7 0.0325389
7 *419:io_frequency[4] *419:io_frequency[6] 4.43294e-06
8 *24:9 io_oeb[23] 0.237315
9 *24:9 *30:9 0.0229518
10 *24:9 *57:10 0.000691059
11 *24:13 *30:13 0.000156593
12 *24:13 *56:12 0.0153358
13 *24:13 *57:6 0
14 *15:17 *24:13 0.119568
15 *19:13 *24:13 0.199808
16 *20:13 *24:13 0.0005469
17 *21:13 *24:13 0.035745
*RES
1 io_in[30] *24:7 24.52 
2 *24:7 *24:9 613.704 
3 *24:9 *24:11 4.5 
4 *24:11 *24:13 507.208 
5 *24:13 *419:io_frequency[4] 5.176 
*END

*D_NET *25 0.645906
*CONN
*P io_in[31] I
*I *419:io_frequency[5] I *D PWMaudio
*CAP
1 io_in[31] 0.00304839
2 *419:io_frequency[5] 0.00174723
3 *25:13 0.0150067
4 *25:11 0.0132594
5 *25:9 0.00400569
6 *25:7 0.00705408
7 *419:io_frequency[5] *419:io_frequency[8] 0.000126984
8 *419:io_frequency[5] *28:13 0.00155261
9 *419:io_frequency[5] *51:12 0.00015319
10 *419:io_frequency[5] *53:8 0.00310902
11 *25:9 *29:9 0.0136585
12 *25:9 *68:10 0.139016
13 *25:13 *28:13 0.176571
14 *25:13 *57:6 9.19908e-05
15 *419:io_frequency[3] *419:io_frequency[5] 0.00318944
16 *18:9 *25:9 0.0178414
17 *20:9 *25:9 0.207838
18 *22:13 *419:io_frequency[5] 4.17612e-05
19 *22:13 *25:13 0.0385946
*RES
1 io_in[31] *25:7 27.432 
2 *25:7 *25:9 532.376 
3 *25:9 *25:11 4.5 
4 *25:11 *25:13 472.576 
5 *25:13 *419:io_frequency[5] 34.66 
*END

*D_NET *26 0.404203
*CONN
*P io_in[32] I
*I *419:io_frequency[6] I *D PWMaudio
*CAP
1 io_in[32] 0.0018559
2 *419:io_frequency[6] 0.00027669
3 *26:13 0.0300729
4 *26:11 0.0297962
5 *26:9 0.0321617
6 *26:7 0.0340176
7 *26:9 *27:9 0.0606846
8 *26:9 *64:12 0.00662429
9 *26:13 *63:9 0
10 *419:io_frequency[4] *419:io_frequency[6] 4.43294e-06
11 *17:9 *26:9 0.000203548
12 *17:13 *26:7 9.96173e-06
13 *21:9 *26:9 0.00450421
14 *21:13 *26:13 0.203991
*RES
1 io_in[32] *26:7 18.488 
2 *26:7 *26:9 457.08 
3 *26:9 *26:11 4.5 
4 *26:11 *26:13 511.992 
5 *26:13 *419:io_frequency[6] 5.8 
*END

*D_NET *27 0.478308
*CONN
*P io_in[33] I
*I *419:io_frequency[7] I *D PWMaudio
*CAP
1 io_in[33] 0.00176292
2 *419:io_frequency[7] 0.00070841
3 *27:13 0.0308224
4 *27:11 0.030114
5 *27:9 0.00376294
6 *27:7 0.00552586
7 *419:io_frequency[7] *419:io_frequency[8] 9.21164e-05
8 *27:13 *54:12 0.199658
9 *21:9 *27:9 0.145177
10 *26:9 *27:9 0.0606846
*RES
1 io_in[33] *27:7 18.072 
2 *27:7 *27:9 371.8 
3 *27:9 *27:11 4.5 
4 *27:11 *27:13 507.416 
5 *27:13 *419:io_frequency[7] 17.764 
*END

*D_NET *28 0.368309
*CONN
*P io_in[34] I
*I *419:io_frequency[8] I *D PWMaudio
*CAP
1 io_in[34] 0.00353197
2 *419:io_frequency[8] 0.000208552
3 *28:13 0.0381016
4 *28:11 0.037893
5 *28:9 0.019851
6 *28:7 0.023383
7 *28:9 *31:9 0.0235648
8 *28:13 *51:12 0.00451057
9 *419:io_frequency[3] *419:io_frequency[8] 0.00037585
10 *419:io_frequency[5] *419:io_frequency[8] 0.000126984
11 *419:io_frequency[5] *28:13 0.00155261
12 *419:io_frequency[7] *419:io_frequency[8] 9.21164e-05
13 *22:9 *28:9 0.0385458
14 *25:13 *28:13 0.176571
*RES
1 io_in[34] *28:7 30.968 
2 *28:7 *28:9 296.296 
3 *28:9 *28:11 4.5 
4 *28:11 *28:13 494.936 
5 *28:13 *419:io_frequency[8] 15.684 
*END

*D_NET *29 0.360849
*CONN
*P io_in[35] I
*I *419:io_frequency[9] I *D PWMaudio
*CAP
1 io_in[35] 0.00317119
2 *419:io_frequency[9] 0.000594183
3 *29:13 0.0292435
4 *29:11 0.0286493
5 *29:9 0.0136379
6 *29:7 0.0168091
7 *29:9 *68:10 0.051214
8 *29:13 *49:14 0.0041761
9 *29:13 *54:12 0.199695
10 *25:9 *29:9 0.0136585
*RES
1 io_in[35] *29:7 27.848 
2 *29:7 *29:9 214.968 
3 *29:9 *29:11 4.5 
4 *29:11 *29:13 501.384 
5 *29:13 *419:io_frequency[9] 17.348 
*END

*D_NET *30 0.349294
*CONN
*P io_in[36] I
*I *419:io_frequency[10] I *D PWMaudio
*CAP
1 io_in[36] 0.00281129
2 *419:io_frequency[10] 0
3 *30:13 0.0072501
4 *30:11 0.0072501
5 *30:9 0.0098202
6 *30:7 0.0126315
7 *30:13 *31:13 0.200649
8 *30:13 *56:12 0.0183
9 *30:13 *57:6 0.000988559
10 *13:19 *30:13 0.00381806
11 *14:17 *30:13 0.00929403
12 *20:13 *30:13 0.0533732
13 *24:9 *30:9 0.0229518
14 *24:13 *30:13 0.000156593
*RES
1 io_in[36] *30:7 24.936 
2 *30:7 *30:9 140.92 
3 *30:9 *30:11 4.5 
4 *30:11 *30:13 509.288 
5 *30:13 *419:io_frequency[10] 4.5 
*END

*D_NET *31 0.477802
*CONN
*P io_in[37] I
*I *419:io_frequency[11] I *D PWMaudio
*CAP
1 io_in[37] 0.00357439
2 *419:io_frequency[11] 0
3 *31:13 0.00140997
4 *31:11 0.00140997
5 *31:9 0.000243059
6 *31:7 0.00381745
7 *31:13 *56:12 0.0171831
8 *31:13 *57:6 0.201563
9 *14:17 *31:13 0.000355571
10 *19:9 *31:9 9.00155e-05
11 *22:9 *31:9 0.0239423
12 *28:9 *31:9 0.0235648
13 *30:13 *31:13 0.200649
*RES
1 io_in[37] *31:7 30.76 
2 *31:7 *31:9 62.088 
3 *31:9 *31:11 4.5 
4 *31:11 *31:13 505.96 
5 *31:13 *419:io_frequency[11] 4.5 
*END

*D_NET *40 0.226724
*CONN
*P io_oeb[10] O
*I *419:io_oeb_low[0] O *D PWMaudio
*CAP
1 io_oeb[10] 0.0661741
2 *419:io_oeb_low[0] 0.0449617
3 *40:7 0.0661741
4 *40:5 0.0449617
5 *40:5 *41:5 0.00445257
*RES
1 *419:io_oeb_low[0] *40:5 347.828 
2 *40:5 *40:7 4.5 
3 *40:7 io_oeb[10] 580.996 
*END

*D_NET *41 0.260872
*CONN
*P io_oeb[11] O
*I *419:io_oeb_low[1] O *D PWMaudio
*CAP
1 io_oeb[11] 0.0663618
2 *419:io_oeb_low[1] 0.061743
3 *41:7 0.0663618
4 *41:5 0.061743
5 *419:io_note_length[1] *41:5 0.000209503
6 *40:5 *41:5 0.00445257
*RES
1 *419:io_oeb_low[1] *41:5 421.252 
2 *41:5 *41:7 4.5 
3 *41:7 io_oeb[11] 582.244 
*END

*D_NET *47 0.268854
*CONN
*P io_oeb[17] O
*I *419:io_oeb_high[0] O *D PWMaudio
*CAP
1 io_oeb[17] 0.00118326
2 *419:io_oeb_high[0] 0
3 *47:10 0.123094
4 *47:8 0.121911
5 *47:6 0.0113325
6 *47:4 0.0113325
7 *9:9 io_oeb[17] 0
*RES
1 *419:io_oeb_high[0] *47:4 4.5 
2 *47:4 *47:6 100.36 
3 *47:6 *47:8 4.5 
4 *47:8 *47:10 1092.52 
5 *47:10 io_oeb[17] 18.932 
*END

*D_NET *48 0.155442
*CONN
*P io_oeb[18] O
*I *419:io_oeb_high[1] O *D PWMaudio
*CAP
1 io_oeb[18] 0.000188813
2 *419:io_oeb_high[1] 0.0775321
3 *48:5 0.0777209
*RES
1 *419:io_oeb_high[1] *48:5 655.252 
2 *48:5 io_oeb[18] 2.444 
*END

*D_NET *49 0.317743
*CONN
*P io_oeb[19] O
*I *419:io_oeb_high[2] O *D PWMaudio
*CAP
1 io_oeb[19] 0.00147444
2 *419:io_oeb_high[2] 0.000585766
3 *49:18 0.122887
4 *49:16 0.121413
5 *49:14 0.00523531
6 *49:12 0.00582108
7 *49:12 *57:6 0.00020053
8 *49:14 *54:12 0.00187324
9 *419:io_adsr_choice[0] io_oeb[19] 0
10 *419:io_adsr_choice[0] *49:18 0.0359479
11 *419:io_adsr_choice[1] *49:18 0.0180618
12 *9:9 io_oeb[19] 6.67169e-05
13 *29:13 *49:14 0.0041761
*RES
1 *419:io_oeb_high[2] *49:12 18.284 
2 *49:12 *49:14 55.848 
3 *49:14 *49:16 4.5 
4 *49:16 *49:18 1085.66 
5 *49:18 io_oeb[19] 21.428 
*END

*D_NET *51 0.323409
*CONN
*P io_oeb[20] O
*I *419:io_oeb_high[3] O *D PWMaudio
*CAP
1 io_oeb[20] 0.00108807
2 *419:io_oeb_high[3] 0.00375708
3 *51:18 0.00751334
4 *51:16 0.00642527
5 *51:14 0.121651
6 *51:12 0.125408
7 *51:12 *57:6 0.00076566
8 *419:io_frequency[3] *51:12 0
9 *419:io_frequency[5] *51:12 0.00015319
10 *13:11 *51:18 0.00536847
11 *14:9 *51:18 0.0467691
12 *28:13 *51:12 0.00451057
*RES
1 *419:io_oeb_high[3] *51:12 44.464 
2 *51:12 *51:14 1088.98 
3 *51:14 *51:16 4.5 
4 *51:16 *51:18 120.536 
5 *51:18 io_oeb[20] 13.704 
*END

*D_NET *52 0.309616
*CONN
*P io_oeb[21] O
*I *419:io_oeb_high[4] O *D PWMaudio
*CAP
1 io_oeb[21] 0.0767338
2 *419:io_oeb_high[4] 0.000889295
3 *52:11 0.0767338
4 *52:9 0.0177495
5 *52:7 0.0186388
6 *52:9 *55:9 0.00126116
7 *11:9 *52:9 0.0223224
8 *16:9 *52:9 0.0952878
*RES
1 *419:io_oeb_high[4] *52:7 11.208 
2 *52:7 *52:9 302.744 
3 *52:9 *52:11 4.5 
4 *52:11 io_oeb[21] 648.596 
*END

*D_NET *53 0.378712
*CONN
*P io_oeb[22] O
*I *419:io_oeb_high[5] O *D PWMaudio
*CAP
1 io_oeb[22] 0.00113656
2 *419:io_oeb_high[5] 1.57588e-05
3 *53:14 0.0333337
4 *53:12 0.0321971
5 *53:10 0.121879
6 *53:8 0.121895
7 *419:io_frequency[3] *53:8 0.00311891
8 *419:io_frequency[5] *53:8 0.00310902
9 *14:9 *53:14 0.0618119
10 *15:11 *53:14 0.000215214
*RES
1 *419:io_oeb_high[5] *53:8 16.8 
2 *53:8 *53:10 1089.82 
3 *53:10 *53:12 4.5 
4 *53:12 *53:14 360.152 
5 *53:14 io_oeb[22] 14.12 
*END

*D_NET *54 1.07028
*CONN
*P io_oeb[23] O
*I *419:io_oeb_high[6] O *D PWMaudio
*CAP
1 io_oeb[23] 0.0427589
2 *419:io_oeb_high[6] 0.000578622
3 *54:14 0.0427589
4 *54:12 0.00269205
5 *54:10 0.00327067
6 io_oeb[23] *57:10 0.339674
7 *24:9 io_oeb[23] 0.237315
8 *27:13 *54:12 0.199658
9 *29:13 *54:12 0.199695
10 *49:14 *54:12 0.00187324
*RES
1 *419:io_oeb_high[6] *54:10 17.556 
2 *54:10 *54:12 516.152 
3 *54:12 *54:14 4.5 
4 *54:14 io_oeb[23] 1095.38 
*END

*D_NET *55 0.738236
*CONN
*P io_oeb[24] O
*I *419:io_oeb_high[7] O *D PWMaudio
*CAP
1 io_oeb[24] 0.00081315
2 *419:io_oeb_high[7] 0.000800022
3 *55:13 0.0336986
4 *55:11 0.0328855
5 *55:9 0.00718658
6 *55:7 0.00798661
7 *55:9 *62:9 0.227587
8 *55:13 *58:13 0.134669
9 *55:13 *59:13 0.103952
10 *11:9 *55:9 0.0268208
11 *16:9 *55:9 0.160576
12 *52:9 *55:9 0.00126116
*RES
1 *419:io_oeb_high[7] *55:7 10.792 
2 *55:7 *55:9 572.312 
3 *55:9 *55:11 4.5 